* Extracted by KLayout with SG13G2 LVS runset on : 24/03/2026 21:14

.SUBCKT dac4x32module VSS EN[0]|EN[7]|INP|ON ENB[0]|ENB[7]|INN|ONB
+ INP|ON|ON[0]|ON[63] INN|ONB|ONB[0]|ONB[63] INP|ON|ON[1]|ON[62]
+ INN|ONB|ONB[1]|ONB[62] INP|ON|ON[2]|ON[61] INN|ONB|ONB[2]|ONB[61]
+ INP|ON|ON[3]|ON[60] INN|ONB|ONB[3]|ONB[60] INP|ON|ON[4]|ON[59]
+ INN|ONB|ONB[4]|ONB[59] INP|ON|ON[58]|ON[5] INN|ONB|ONB[58]|ONB[5]
+ INP|ON|ON[57]|ON[6] INN|ONB|ONB[57]|ONB[6] INP|ON|ON[56]|ON[7]
+ INN|ONB|ONB[56]|ONB[7] INP|ON|ON[55]|ON[8] INN|ONB|ONB[55]|ONB[8]
+ INP|ON|ON[54]|ON[9] INN|ONB|ONB[54]|ONB[9] INP|ON|ON[10]|ON[53]
+ INN|ONB|ONB[10]|ONB[53] INP|ON|ON[11]|ON[52] INN|ONB|ONB[11]|ONB[52]
+ INP|ON|ON[12]|ON[51] INN|ONB|ONB[12]|ONB[51] INP|ON|ON[13]|ON[50]
+ INN|ONB|ONB[13]|ONB[50] INP|ON|ON[14]|ON[49] INN|ONB|ONB[14]|ONB[49]
+ INP|ON|ON[15]|ON[48] INN|ONB|ONB[15]|ONB[48] EN[1]|EN[6]|INP|ON
+ ENB[1]|ENB[6]|INN|ONB EN[0]|EN[5]|INP|ON ENB[0]|ENB[5]|INN|ONB
+ INP|ON|ON[0]|ON[47] INN|ONB|ONB[0]|ONB[47] INP|ON|ON[1]|ON[46]
+ INN|ONB|ONB[1]|ONB[46] INP|ON|ON[2]|ON[45] INN|ONB|ONB[2]|ONB[45]
+ INP|ON|ON[3]|ON[44] INN|ONB|ONB[3]|ONB[44] INP|ON|ON[43]|ON[4]
+ INN|ONB|ONB[43]|ONB[4] INP|ON|ON[42]|ON[5] INN|ONB|ONB[42]|ONB[5]
+ INP|ON|ON[41]|ON[6] INN|ONB|ONB[41]|ONB[6] INP|ON|ON[40]|ON[7]
+ INN|ONB|ONB[40]|ONB[7] INP|ON|ON[39]|ON[8] INN|ONB|ONB[39]|ONB[8]
+ INP|ON|ON[38]|ON[9] INN|ONB|ONB[38]|ONB[9] INP|ON|ON[10]|ON[37]
+ INN|ONB|ONB[10]|ONB[37] INP|ON|ON[11]|ON[36] INN|ONB|ONB[11]|ONB[36]
+ INP|ON|ON[12]|ON[35] INN|ONB|ONB[12]|ONB[35] INP|ON|ON[13]|ON[34]
+ INN|ONB|ONB[13]|ONB[34] INP|ON|ON[14]|ON[33] INN|ONB|ONB[14]|ONB[33]
+ INP|ON|ON[15]|ON[32] INN|ONB|ONB[15]|ONB[32] EN[1]|EN[4]|INP|ON
+ ENB[1]|ENB[4]|INN|ONB EN[0]|EN[3]|INP|ON ENB[0]|ENB[3]|INN|ONB
+ INP|ON|ON[0]|ON[31] INN|ONB|ONB[0]|ONB[31] INP|ON|ON[1]|ON[30]
+ INN|ONB|ONB[1]|ONB[30] INP|ON|ON[29]|ON[2] INN|ONB|ONB[29]|ONB[2]
+ INP|ON|ON[28]|ON[3] INN|ONB|ONB[28]|ONB[3] INP|ON|ON[27]|ON[4]
+ INN|ONB|ONB[27]|ONB[4] INP|ON|ON[26]|ON[5] INN|ONB|ONB[26]|ONB[5]
+ INP|ON|ON[25]|ON[6] INN|ONB|ONB[25]|ONB[6] INP|ON|ON[24]|ON[7]
+ INN|ONB|ONB[24]|ONB[7] INP|ON|ON[23]|ON[8] INN|ONB|ONB[23]|ONB[8]
+ INP|ON|ON[22]|ON[9] INN|ONB|ONB[22]|ONB[9] INP|ON|ON[10]|ON[21]
+ INN|ONB|ONB[10]|ONB[21] INP|ON|ON[11]|ON[20] INN|ONB|ONB[11]|ONB[20]
+ INP|ON|ON[12]|ON[19] INN|ONB|ONB[12]|ONB[19] INP|ON|ON[13]|ON[18]
+ INN|ONB|ONB[13]|ONB[18] INP|ON|ON[14]|ON[17] INN|ONB|ONB[14]|ONB[17]
+ INP|ON|ON[15]|ON[16] INN|ONB|ONB[15]|ONB[16] EN[1]|EN[2]|INP|ON
+ ENB[1]|ENB[2]|INN|ONB EN[0]|EN[1]|INP|ON ENB[0]|ENB[1]|INN|ONB
+ INP|ON|ON[0]|ON[15] INN|ONB|ONB[0]|ONB[15] INP|ON|ON[14]|ON[1]
+ INN|ONB|ONB[14]|ONB[1] INP|ON|ON[13]|ON[2] INN|ONB|ONB[13]|ONB[2]
+ INP|ON|ON[12]|ON[3] INN|ONB|ONB[12]|ONB[3] INP|ON|ON[11]|ON[4]
+ INN|ONB|ONB[11]|ONB[4] INP|ON|ON[10]|ON[5] INN|ONB|ONB[10]|ONB[5]
+ INP|ON|ON[6]|ON[9] INN|ONB|ONB[6]|ONB[9] INP|ON|ON[7]|ON[8]
+ INN|ONB|ONB[7]|ONB[8] INP|ON|ON[7]|ON[8]$1 INN|ONB|ONB[7]|ONB[8]$1
+ INP|ON|ON[6]|ON[9]$1 INN|ONB|ONB[6]|ONB[9]$1 INP|ON|ON[10]|ON[5]$1
+ INN|ONB|ONB[10]|ONB[5]$1 INP|ON|ON[11]|ON[4]$1 INN|ONB|ONB[11]|ONB[4]$1
+ INP|ON|ON[12]|ON[3]$1 INN|ONB|ONB[12]|ONB[3]$1 INP|ON|ON[13]|ON[2]$1
+ INN|ONB|ONB[13]|ONB[2]$1 INP|ON|ON[14]|ON[1]$1 INN|ONB|ONB[14]|ONB[1]$1
+ INP|ON|ON[0]|ON[15]$1 INN|ONB|ONB[0]|ONB[15]$1 EN[0]|EN[1]|INP|ON$1
+ ENB[0]|ENB[1]|INN|ONB$1 OUTN OUTP OUTN$1 OUTP$1 OUTN$2 OUTP$2 OUTN$3 OUTP$3
+ OUTN$4 VDD OUTP$4 OUTN$5 OUTP$5 OUTN$6 OUTP$6 OUTN$7 OUTP$7 OUTN$8 OUTP$8
+ OUTN$9 OUTP$9 OUTN$10 OUTP$10 OUTN$11 OUTP$11 OUTN$12 OUTP$12 OUTN$13 OUTP$13
+ OUTN$14 OUTP$14 OUTN$15 OUTP$15 OUTN$16 OUTP$16 OUTN$17 OUTP$17 OUTN$18
+ OUTP$18 OUTN$19 OUTP$19 OUTN$20 OUTP$20 OUTN$21 OUTP$21 OUTN$22 OUTP$22
+ OUTN$23 OUTP$23 OUTN$24 OUTP$24 OUTN$25 OUTP$25 OUTN$26 OUTP$26 OUTN$27
+ OUTP$27 OUTN$28 OUTP$28 OUTN$29 OUTP$29 OUTN$30 OUTP$30 OUTN$31 OUTP$31
+ OUTN$32 OUTP$32 OUTN$33 OUTP$33 OUTN$34 OUTP$34 OUTN$35 OUTP$35 OUTN$36
+ OUTP$36 OUTN$37 OUTP$37 OUTN$38 OUTP$38 OUTN$39 OUTP$39 OUTN$40 OUTP$40
+ OUTN$41 OUTP$41 OUTN$42 OUTP$42 OUTN$43 OUTP$43 OUTN$44 OUTP$44 OUTN$45
+ OUTP$45 OUTN$46 OUTP$46 OUTN$47 OUTP$47 OUTN$48 OUTP$48 OUTN$49 OUTP$49
+ OUTN$50 OUTP$50 OUTN$51 OUTP$51 OUTN$52 OUTP$52 OUTN$53 OUTP$53 OUTN$54
+ OUTP$54 OUTN$55 OUTP$55 OUTN$56 OUTP$56 OUTN$57 OUTP$57 OUTN$58 OUTP$58
+ OUTN$59 OUTP$59 OUTN$60 OUTP$60 OUTN$61 OUTP$61 OUTN$62 OUTP$62 OUTN$63
+ OUTP$63 OUTN$64 OUTP$64 OUTN$65 OUTP$65 OUTN$66 OUTP$66 OUTN$67 OUTP$67
+ OUTN$68 OUTP$68 OUTN$69 OUTP$69 OUTN$70 OUTP$70 OUTN$71 OUTP$71
+ C10|VbiasP[3]|VcascP|VcascP[0] C10|C30|VbiasP[2]|VcascP|VcascP[0]
+ C10|C30|VbiasP[1]|VcascP|VcascP[0] C10|C30|VbiasP[0]|VcascP|VcascP[0]
+ VcascodeP VcascodeP$1 VcascodeP$2 VcascodeP$3 VcascodeP$4 VcascodeP$5
+ VcascodeP$6 VcascodeP$7 VcascodeP$8 VcascodeP$9 VcascodeP$10 VcascodeP$11
+ VcascodeP$12 VcascodeP$13 VcascodeP$14 VcascodeP$15 VcascodeP$16 VcascodeP$17
+ VcascodeP$18 VcascodeP$19 VcascodeP$20 VcascodeP$21 VcascodeP$22 VcascodeP$23
+ VcascodeP$24 VcascodeP$25 VcascodeP$26 VcascodeP$27 VcascodeP$28 VcascodeP$29
+ VcascodeP$30 VcascodeP$31 VcascodeP$32 VcascodeP$33 VcascodeP$34 VcascodeP$35
+ VcascodeP$36 VcascodeP$37 VcascodeP$38 VcascodeP$39 VcascodeP$40 VcascodeP$41
+ VcascodeP$42 VcascodeP$43 VcascodeP$44 VcascodeP$45 VcascodeP$46 VcascodeP$47
+ VcascodeP$48 VcascodeP$49 VcascodeP$50 VcascodeP$51 VcascodeP$52 VcascodeP$53
+ VcascodeP$54 VcascodeP$55 VcascodeP$56 VcascodeP$57 VcascodeP$58 VcascodeP$59
+ VcascodeP$60 VcascodeP$61 VcascodeP$62 VcascodeP$63 VcascodeP$64 VcascodeP$65
+ VcascodeP$66 VcascodeP$67 VcascodeP$68 VcascodeP$69 VcascodeP$70 VcascodeP$71
+ C11|Iout|VbiasP|VbiasP[0] C11|C31|Iout|VbiasP|VbiasP[0]
+ C11|C31|Iout|VbiasP|VbiasP[0]$1 C11|C31|Iout|VbiasP|VbiasP[0]$2 Iout
+ C01|Iout|VbiasP|VbiasP[1] C01|C21|Iout|VbiasP|VbiasP[1]
+ C01|C21|Iout|VbiasP|VbiasP[1]$1 C01|C21|Iout|VbiasP|VbiasP[1]$2
+ C00|VbiasP[4]|VcascP|VcascP[1] C00|C20|VbiasP[5]|VcascP|VcascP[1]
+ C00|C20|VbiasP[6]|VcascP|VcascP[1] C00|C20|VbiasP[7]|VcascP|VcascP[1]
+ VcascodeP$72 VcascodeP$73 VcascodeP$74 VcascodeP$75 VcascodeP$76 VcascodeP$77
+ VcascodeP$78 VcascodeP$79 VcascodeP$80 VcascodeP$81 VcascodeP$82 VcascodeP$83
+ VcascodeP$84 VcascodeP$85 VcascodeP$86 VcascodeP$87 VcascodeP$88 VcascodeP$89
+ VcascodeP$90 VcascodeP$91 VcascodeP$92 VcascodeP$93 VcascodeP$94 VcascodeP$95
+ VcascodeP$96 VcascodeP$97 VcascodeP$98 VcascodeP$99 VcascodeP$100
+ VcascodeP$101 VcascodeP$102 VcascodeP$103 VcascodeP$104 VcascodeP$105
+ VcascodeP$106 VcascodeP$107 VcascodeP$108 VcascodeP$109 VcascodeP$110
+ VcascodeP$111 VcascodeP$112 VcascodeP$113 VcascodeP$114 VcascodeP$115
+ VcascodeP$116 VcascodeP$117 VcascodeP$118 VcascodeP$119 VcascodeP$120
+ VcascodeP$121 VcascodeP$122 VcascodeP$123 VcascodeP$124 VcascodeP$125
+ VcascodeP$126 VcascodeP$127 VcascodeP$128 VcascodeP$129 VcascodeP$130
+ VcascodeP$131 VcascodeP$132 VcascodeP$133 VcascodeP$134 VcascodeP$135
+ VcascodeP$136 VcascodeP$137 VcascodeP$138 VcascodeP$139 VcascodeP$140
+ VcascodeP$141 VcascodeP$142 VcascodeP$143 OUTP$72 OUTN$72 OUTP$73 OUTN$73
+ OUTP$74 OUTN$74 OUTP$75 OUTN$75 OUTP$76 OUTN$76 OUTP$77 OUTN$77 OUTP$78
+ OUTN$78 OUTP$79 OUTN$79 OUTP$80 OUTN$80 OUTP$81 OUTN$81 OUTP$82 OUTN$82
+ OUTP$83 OUTN$83 OUTP$84 OUTN$84 OUTP$85 OUTN$85 OUTP$86 OUTN$86 OUTP$87
+ OUTN$87 OUTP$88 OUTN$88 OUTP$89 OUTN$89 OUTP$90 OUTN$90 OUTP$91 OUTN$91
+ OUTP$92 OUTN$92 OUTP$93 OUTN$93 OUTP$94 OUTN$94 OUTP$95 OUTN$95 OUTP$96
+ OUTN$96 OUTP$97 OUTN$97 OUTP$98 OUTN$98 OUTP$99 OUTN$99 OUTP$100 OUTN$100
+ OUTP$101 OUTN$101 OUTP$102 OUTN$102 OUTP$103 OUTN$103 OUTP$104 OUTN$104
+ OUTP$105 OUTN$105 OUTP$106 OUTN$106 OUTP$107 OUTN$107 OUTP$108 OUTN$108
+ OUTP$109 OUTN$109 OUTP$110 OUTN$110 OUTP$111 OUTN$111 OUTP$112 OUTN$112
+ OUTP$113 OUTN$113 OUTP$114 OUTN$114 OUTP$115 OUTN$115 OUTP$116 OUTN$116
+ OUTP$117 OUTN$117 OUTP$118 OUTN$118 OUTP$119 OUTN$119 OUTP$120 OUTN$120
+ OUTP$121 OUTN$121 OUTP$122 OUTN$122 OUTP$123 OUTN$123 OUTP$124 OUTN$124
+ OUTP$125 OUTN$125 OUTP$126 OUTN$126 OUTP$127 OUTN$127 OUTP$128 OUTN$128
+ OUTP$129 OUTN$129 OUTP$130 OUTN$130 OUTP$131 OUTN$131 OUTP$132 OUTN$132
+ OUTP$133 OUTN$133 OUTP$134 OUTN$134 OUTP$135 OUTN$135 OUTP$136 OUTN$136
+ OUTP$137 OUTN$137 OUTP$138 OUTN$138 OUTP$139 OUTN$139 OUTP$140 OUTN$140
+ OUTP$141 OUTN$141 OUTP$142 OUTN$142 OUTP$143 OUTN$143
+ ENB[1]|ENB[3]|ENB[8]|INN|ONB EN[1]|EN[3]|EN[8]|INP|ON
+ INN|ONB|ONB[15]|ONB[31]|ONB[64] INP|ON|ON[15]|ON[31]|ON[64]
+ INN|ONB|ONB[14]|ONB[30]|ONB[65] INP|ON|ON[14]|ON[30]|ON[65]
+ INN|ONB|ONB[13]|ONB[29]|ONB[66] INP|ON|ON[13]|ON[29]|ON[66]
+ INN|ONB|ONB[12]|ONB[28]|ONB[67] INP|ON|ON[12]|ON[28]|ON[67]
+ INN|ONB|ONB[11]|ONB[27]|ONB[68] INP|ON|ON[11]|ON[27]|ON[68]
+ INN|ONB|ONB[10]|ONB[26]|ONB[69] INP|ON|ON[10]|ON[26]|ON[69]
+ INN|ONB|ONB[25]|ONB[70]|ONB[9] INP|ON|ON[25]|ON[70]|ON[9]
+ INN|ONB|ONB[24]|ONB[71]|ONB[8] INP|ON|ON[24]|ON[71]|ON[8]
+ INN|ONB|ONB[23]|ONB[72]|ONB[7] INP|ON|ON[23]|ON[72]|ON[7]
+ INN|ONB|ONB[22]|ONB[6]|ONB[73] INP|ON|ON[22]|ON[6]|ON[73]
+ INN|ONB|ONB[21]|ONB[5]|ONB[74] INP|ON|ON[21]|ON[5]|ON[74]
+ INN|ONB|ONB[20]|ONB[4]|ONB[75] INP|ON|ON[20]|ON[4]|ON[75]
+ INN|ONB|ONB[19]|ONB[3]|ONB[76] INP|ON|ON[19]|ON[3]|ON[76]
+ INN|ONB|ONB[18]|ONB[2]|ONB[77] INP|ON|ON[18]|ON[2]|ON[77]
+ INN|ONB|ONB[17]|ONB[1]|ONB[78] INP|ON|ON[17]|ON[1]|ON[78]
+ INN|ONB|ONB[0]|ONB[16]|ONB[79] INP|ON|ON[0]|ON[16]|ON[79]
+ ENB[0]|ENB[2]|ENB[9]|INN|ONB EN[0]|EN[2]|EN[9]|INP|ON
+ ENB[10]|ENB[1]|ENB[3]|INN|ONB EN[10]|EN[1]|EN[3]|INP|ON
+ INN|ONB|ONB[15]|ONB[31]|ONB[80] INP|ON|ON[15]|ON[31]|ON[80]
+ INN|ONB|ONB[14]|ONB[30]|ONB[81] INP|ON|ON[14]|ON[30]|ON[81]
+ INN|ONB|ONB[13]|ONB[29]|ONB[82] INP|ON|ON[13]|ON[29]|ON[82]
+ INN|ONB|ONB[12]|ONB[28]|ONB[83] INP|ON|ON[12]|ON[28]|ON[83]
+ INN|ONB|ONB[11]|ONB[27]|ONB[84] INP|ON|ON[11]|ON[27]|ON[84]
+ INN|ONB|ONB[10]|ONB[26]|ONB[85] INP|ON|ON[10]|ON[26]|ON[85]
+ INN|ONB|ONB[25]|ONB[86]|ONB[9] INP|ON|ON[25]|ON[86]|ON[9]
+ INN|ONB|ONB[24]|ONB[87]|ONB[8] INP|ON|ON[24]|ON[87]|ON[8]
+ INN|ONB|ONB[23]|ONB[7]|ONB[88] INP|ON|ON[23]|ON[7]|ON[88]
+ INN|ONB|ONB[22]|ONB[6]|ONB[89] INP|ON|ON[22]|ON[6]|ON[89]
+ INN|ONB|ONB[21]|ONB[5]|ONB[90] INP|ON|ON[21]|ON[5]|ON[90]
+ INN|ONB|ONB[20]|ONB[4]|ONB[91] INP|ON|ON[20]|ON[4]|ON[91]
+ INN|ONB|ONB[19]|ONB[3]|ONB[92] INP|ON|ON[19]|ON[3]|ON[92]
+ INN|ONB|ONB[18]|ONB[2]|ONB[93] INP|ON|ON[18]|ON[2]|ON[93]
+ INN|ONB|ONB[17]|ONB[1]|ONB[94] INP|ON|ON[17]|ON[1]|ON[94]
+ INN|ONB|ONB[0]|ONB[16]|ONB[95] INP|ON|ON[0]|ON[16]|ON[95]
+ ENB[0]|ENB[11]|ENB[2]|INN|ONB EN[0]|EN[11]|EN[2]|INP|ON
+ ENB[12]|ENB[1]|ENB[3]|INN|ONB EN[12]|EN[1]|EN[3]|INP|ON
+ INN|ONB|ONB[15]|ONB[31]|ONB[96] INP|ON|ON[15]|ON[31]|ON[96]
+ INN|ONB|ONB[14]|ONB[30]|ONB[97] INP|ON|ON[14]|ON[30]|ON[97]
+ INN|ONB|ONB[13]|ONB[29]|ONB[98] INP|ON|ON[13]|ON[29]|ON[98]
+ INN|ONB|ONB[12]|ONB[28]|ONB[99] INP|ON|ON[12]|ON[28]|ON[99]
+ INN|ONB|ONB[100]|ONB[11]|ONB[27] INP|ON|ON[100]|ON[11]|ON[27]
+ INN|ONB|ONB[101]|ONB[10]|ONB[26] INP|ON|ON[101]|ON[10]|ON[26]
+ INN|ONB|ONB[102]|ONB[25]|ONB[9] INP|ON|ON[102]|ON[25]|ON[9]
+ INN|ONB|ONB[103]|ONB[24]|ONB[8] INP|ON|ON[103]|ON[24]|ON[8]
+ INN|ONB|ONB[104]|ONB[23]|ONB[7] INP|ON|ON[104]|ON[23]|ON[7]
+ INN|ONB|ONB[105]|ONB[22]|ONB[6] INP|ON|ON[105]|ON[22]|ON[6]
+ INN|ONB|ONB[106]|ONB[21]|ONB[5] INP|ON|ON[106]|ON[21]|ON[5]
+ INN|ONB|ONB[107]|ONB[20]|ONB[4] INP|ON|ON[107]|ON[20]|ON[4]
+ INN|ONB|ONB[108]|ONB[19]|ONB[3] INP|ON|ON[108]|ON[19]|ON[3]
+ INN|ONB|ONB[109]|ONB[18]|ONB[2] INP|ON|ON[109]|ON[18]|ON[2]
+ INN|ONB|ONB[110]|ONB[17]|ONB[1] INP|ON|ON[110]|ON[17]|ON[1]
+ INN|ONB|ONB[0]|ONB[111]|ONB[16] INP|ON|ON[0]|ON[111]|ON[16]
+ ENB[0]|ENB[13]|ENB[2]|INN|ONB EN[0]|EN[13]|EN[2]|INP|ON
+ ENB[14]|ENB[1]|ENB[3]|INN|ONB EN[14]|EN[1]|EN[3]|INP|ON
+ INN|ONB|ONB[112]|ONB[15]|ONB[31] INP|ON|ON[112]|ON[15]|ON[31]
+ INN|ONB|ONB[113]|ONB[14]|ONB[30] INP|ON|ON[113]|ON[14]|ON[30]
+ INN|ONB|ONB[114]|ONB[13]|ONB[29] INP|ON|ON[114]|ON[13]|ON[29]
+ INN|ONB|ONB[115]|ONB[12]|ONB[28] INP|ON|ON[115]|ON[12]|ON[28]
+ INN|ONB|ONB[116]|ONB[11]|ONB[27] INP|ON|ON[116]|ON[11]|ON[27]
+ INN|ONB|ONB[10]|ONB[117]|ONB[26] INP|ON|ON[10]|ON[117]|ON[26]
+ INN|ONB|ONB[118]|ONB[25]|ONB[9] INP|ON|ON[118]|ON[25]|ON[9]
+ INN|ONB|ONB[119]|ONB[24]|ONB[8] INP|ON|ON[119]|ON[24]|ON[8]
+ INN|ONB|ONB[120]|ONB[23]|ONB[7] INP|ON|ON[120]|ON[23]|ON[7]
+ INN|ONB|ONB[121]|ONB[22]|ONB[6] INP|ON|ON[121]|ON[22]|ON[6]
+ INN|ONB|ONB[122]|ONB[21]|ONB[5] INP|ON|ON[122]|ON[21]|ON[5]
+ INN|ONB|ONB[123]|ONB[20]|ONB[4] INP|ON|ON[123]|ON[20]|ON[4]
+ INN|ONB|ONB[124]|ONB[19]|ONB[3] INP|ON|ON[124]|ON[19]|ON[3]
+ INN|ONB|ONB[125]|ONB[18]|ONB[2] INP|ON|ON[125]|ON[18]|ON[2]
+ INN|ONB|ONB[126]|ONB[17]|ONB[1] INP|ON|ON[126]|ON[17]|ON[1]
+ INN|ONB|ONB[0]|ONB[127]|ONB[16] INP|ON|ON[0]|ON[127]|ON[16]
+ ENB[0]|ENB[15]|ENB[2]|INN|ONB EN[0]|EN[15]|EN[2]|INP|ON
M$1 OUTP$72 OUTN$72 VSS VSS sg13_lv_nmos L=0.52u W=0.15u AS=0.162p AD=0.0855p
+ PS=2.16u PD=1.14u
M$2 VSS OUTP$72 OUTN$72 VSS sg13_lv_nmos L=0.52u W=0.15u AS=0.0855p AD=0.162p
+ PS=1.14u PD=2.16u
M$3 OUTN OUTP VSS VSS sg13_lv_nmos L=0.52u W=0.15u AS=0.162p AD=0.0855p
+ PS=2.16u PD=1.14u
M$4 VSS OUTN OUTP VSS sg13_lv_nmos L=0.52u W=0.15u AS=0.0855p AD=0.162p
+ PS=1.14u PD=2.16u
M$5 OUTN$1 OUTP$1 VSS VSS sg13_lv_nmos L=0.52u W=0.15u AS=0.162p AD=0.0855p
+ PS=2.16u PD=1.14u
M$6 VSS OUTN$1 OUTP$1 VSS sg13_lv_nmos L=0.52u W=0.15u AS=0.0855p AD=0.162p
+ PS=1.14u PD=2.16u
M$7 OUTP$73 OUTN$73 VSS VSS sg13_lv_nmos L=0.52u W=0.15u AS=0.162p AD=0.0855p
+ PS=2.16u PD=1.14u
M$8 VSS OUTP$73 OUTN$73 VSS sg13_lv_nmos L=0.52u W=0.15u AS=0.0855p AD=0.162p
+ PS=1.14u PD=2.16u
M$9 OUTP$74 OUTN$74 VSS VSS sg13_lv_nmos L=0.52u W=0.15u AS=0.162p AD=0.0855p
+ PS=2.16u PD=1.14u
M$10 VSS OUTP$74 OUTN$74 VSS sg13_lv_nmos L=0.52u W=0.15u AS=0.0855p AD=0.162p
+ PS=1.14u PD=2.16u
M$11 OUTN$2 OUTP$2 VSS VSS sg13_lv_nmos L=0.52u W=0.15u AS=0.162p AD=0.0855p
+ PS=2.16u PD=1.14u
M$12 VSS OUTN$2 OUTP$2 VSS sg13_lv_nmos L=0.52u W=0.15u AS=0.0855p AD=0.162p
+ PS=1.14u PD=2.16u
M$13 OUTN$3 OUTP$3 VSS VSS sg13_lv_nmos L=0.52u W=0.15u AS=0.162p AD=0.0855p
+ PS=2.16u PD=1.14u
M$14 VSS OUTN$3 OUTP$3 VSS sg13_lv_nmos L=0.52u W=0.15u AS=0.0855p AD=0.162p
+ PS=1.14u PD=2.16u
M$15 OUTP$75 OUTN$75 VSS VSS sg13_lv_nmos L=0.52u W=0.15u AS=0.162p AD=0.0855p
+ PS=2.16u PD=1.14u
M$16 VSS OUTP$75 OUTN$75 VSS sg13_lv_nmos L=0.52u W=0.15u AS=0.0855p AD=0.162p
+ PS=1.14u PD=2.16u
M$17 OUTN$4 OUTP$4 VSS VSS sg13_lv_nmos L=0.52u W=0.15u AS=0.162p AD=0.0855p
+ PS=2.16u PD=1.14u
M$18 VSS OUTN$4 OUTP$4 VSS sg13_lv_nmos L=0.52u W=0.15u AS=0.0855p AD=0.162p
+ PS=1.14u PD=2.16u
M$19 OUTP$76 OUTN$76 VSS VSS sg13_lv_nmos L=0.52u W=0.15u AS=0.162p AD=0.0855p
+ PS=2.16u PD=1.14u
M$20 VSS OUTP$76 OUTN$76 VSS sg13_lv_nmos L=0.52u W=0.15u AS=0.0855p AD=0.162p
+ PS=1.14u PD=2.16u
M$21 OUTP$77 OUTN$77 VSS VSS sg13_lv_nmos L=0.52u W=0.15u AS=0.162p AD=0.0855p
+ PS=2.16u PD=1.14u
M$22 VSS OUTP$77 OUTN$77 VSS sg13_lv_nmos L=0.52u W=0.15u AS=0.0855p AD=0.162p
+ PS=1.14u PD=2.16u
M$23 OUTN$5 OUTP$5 VSS VSS sg13_lv_nmos L=0.52u W=0.15u AS=0.162p AD=0.0855p
+ PS=2.16u PD=1.14u
M$24 VSS OUTN$5 OUTP$5 VSS sg13_lv_nmos L=0.52u W=0.15u AS=0.0855p AD=0.162p
+ PS=1.14u PD=2.16u
M$25 OUTP$78 OUTN$78 VSS VSS sg13_lv_nmos L=0.52u W=0.15u AS=0.162p AD=0.0855p
+ PS=2.16u PD=1.14u
M$26 VSS OUTP$78 OUTN$78 VSS sg13_lv_nmos L=0.52u W=0.15u AS=0.0855p AD=0.162p
+ PS=1.14u PD=2.16u
M$27 OUTN$6 OUTP$6 VSS VSS sg13_lv_nmos L=0.52u W=0.15u AS=0.162p AD=0.0855p
+ PS=2.16u PD=1.14u
M$28 VSS OUTN$6 OUTP$6 VSS sg13_lv_nmos L=0.52u W=0.15u AS=0.0855p AD=0.162p
+ PS=1.14u PD=2.16u
M$29 OUTN$7 OUTP$7 VSS VSS sg13_lv_nmos L=0.52u W=0.15u AS=0.162p AD=0.0855p
+ PS=2.16u PD=1.14u
M$30 VSS OUTN$7 OUTP$7 VSS sg13_lv_nmos L=0.52u W=0.15u AS=0.0855p AD=0.162p
+ PS=1.14u PD=2.16u
M$31 OUTP$79 OUTN$79 VSS VSS sg13_lv_nmos L=0.52u W=0.15u AS=0.162p AD=0.0855p
+ PS=2.16u PD=1.14u
M$32 VSS OUTP$79 OUTN$79 VSS sg13_lv_nmos L=0.52u W=0.15u AS=0.0855p AD=0.162p
+ PS=1.14u PD=2.16u
M$33 OUTP$80 OUTN$80 VSS VSS sg13_lv_nmos L=0.52u W=0.15u AS=0.162p AD=0.0855p
+ PS=2.16u PD=1.14u
M$34 VSS OUTP$80 OUTN$80 VSS sg13_lv_nmos L=0.52u W=0.15u AS=0.0855p AD=0.162p
+ PS=1.14u PD=2.16u
M$35 OUTN$8 OUTP$8 VSS VSS sg13_lv_nmos L=0.52u W=0.15u AS=0.162p AD=0.0855p
+ PS=2.16u PD=1.14u
M$36 VSS OUTN$8 OUTP$8 VSS sg13_lv_nmos L=0.52u W=0.15u AS=0.0855p AD=0.162p
+ PS=1.14u PD=2.16u
M$37 OUTN$9 OUTP$9 VSS VSS sg13_lv_nmos L=0.52u W=0.15u AS=0.162p AD=0.0855p
+ PS=2.16u PD=1.14u
M$38 VSS OUTN$9 OUTP$9 VSS sg13_lv_nmos L=0.52u W=0.15u AS=0.0855p AD=0.162p
+ PS=1.14u PD=2.16u
M$39 OUTP$81 OUTN$81 VSS VSS sg13_lv_nmos L=0.52u W=0.15u AS=0.162p AD=0.0855p
+ PS=2.16u PD=1.14u
M$40 VSS OUTP$81 OUTN$81 VSS sg13_lv_nmos L=0.52u W=0.15u AS=0.0855p AD=0.162p
+ PS=1.14u PD=2.16u
M$41 OUTN$10 OUTP$10 VSS VSS sg13_lv_nmos L=0.52u W=0.15u AS=0.162p AD=0.0855p
+ PS=2.16u PD=1.14u
M$42 VSS OUTN$10 OUTP$10 VSS sg13_lv_nmos L=0.52u W=0.15u AS=0.0855p AD=0.162p
+ PS=1.14u PD=2.16u
M$43 OUTP$82 OUTN$82 VSS VSS sg13_lv_nmos L=0.52u W=0.15u AS=0.162p AD=0.0855p
+ PS=2.16u PD=1.14u
M$44 VSS OUTP$82 OUTN$82 VSS sg13_lv_nmos L=0.52u W=0.15u AS=0.0855p AD=0.162p
+ PS=1.14u PD=2.16u
M$45 OUTP$83 OUTN$83 VSS VSS sg13_lv_nmos L=0.52u W=0.15u AS=0.162p AD=0.0855p
+ PS=2.16u PD=1.14u
M$46 VSS OUTP$83 OUTN$83 VSS sg13_lv_nmos L=0.52u W=0.15u AS=0.0855p AD=0.162p
+ PS=1.14u PD=2.16u
M$47 OUTN$11 OUTP$11 VSS VSS sg13_lv_nmos L=0.52u W=0.15u AS=0.162p AD=0.0855p
+ PS=2.16u PD=1.14u
M$48 VSS OUTN$11 OUTP$11 VSS sg13_lv_nmos L=0.52u W=0.15u AS=0.0855p AD=0.162p
+ PS=1.14u PD=2.16u
M$49 OUTP$84 OUTN$84 VSS VSS sg13_lv_nmos L=0.52u W=0.15u AS=0.162p AD=0.0855p
+ PS=2.16u PD=1.14u
M$50 VSS OUTP$84 OUTN$84 VSS sg13_lv_nmos L=0.52u W=0.15u AS=0.0855p AD=0.162p
+ PS=1.14u PD=2.16u
M$51 OUTN$12 OUTP$12 VSS VSS sg13_lv_nmos L=0.52u W=0.15u AS=0.162p AD=0.0855p
+ PS=2.16u PD=1.14u
M$52 VSS OUTN$12 OUTP$12 VSS sg13_lv_nmos L=0.52u W=0.15u AS=0.0855p AD=0.162p
+ PS=1.14u PD=2.16u
M$53 OUTN$13 OUTP$13 VSS VSS sg13_lv_nmos L=0.52u W=0.15u AS=0.162p AD=0.0855p
+ PS=2.16u PD=1.14u
M$54 VSS OUTN$13 OUTP$13 VSS sg13_lv_nmos L=0.52u W=0.15u AS=0.0855p AD=0.162p
+ PS=1.14u PD=2.16u
M$55 OUTP$85 OUTN$85 VSS VSS sg13_lv_nmos L=0.52u W=0.15u AS=0.162p AD=0.0855p
+ PS=2.16u PD=1.14u
M$56 VSS OUTP$85 OUTN$85 VSS sg13_lv_nmos L=0.52u W=0.15u AS=0.0855p AD=0.162p
+ PS=1.14u PD=2.16u
M$57 OUTP$86 OUTN$86 VSS VSS sg13_lv_nmos L=0.52u W=0.15u AS=0.162p AD=0.0855p
+ PS=2.16u PD=1.14u
M$58 VSS OUTP$86 OUTN$86 VSS sg13_lv_nmos L=0.52u W=0.15u AS=0.0855p AD=0.162p
+ PS=1.14u PD=2.16u
M$59 OUTN$14 OUTP$14 VSS VSS sg13_lv_nmos L=0.52u W=0.15u AS=0.162p AD=0.0855p
+ PS=2.16u PD=1.14u
M$60 VSS OUTN$14 OUTP$14 VSS sg13_lv_nmos L=0.52u W=0.15u AS=0.0855p AD=0.162p
+ PS=1.14u PD=2.16u
M$61 OUTP$87 OUTN$87 VSS VSS sg13_lv_nmos L=0.52u W=0.15u AS=0.162p AD=0.0855p
+ PS=2.16u PD=1.14u
M$62 VSS OUTP$87 OUTN$87 VSS sg13_lv_nmos L=0.52u W=0.15u AS=0.0855p AD=0.162p
+ PS=1.14u PD=2.16u
M$63 OUTN$15 OUTP$15 VSS VSS sg13_lv_nmos L=0.52u W=0.15u AS=0.162p AD=0.0855p
+ PS=2.16u PD=1.14u
M$64 VSS OUTN$15 OUTP$15 VSS sg13_lv_nmos L=0.52u W=0.15u AS=0.0855p AD=0.162p
+ PS=1.14u PD=2.16u
M$65 OUTN$16 OUTP$16 VSS VSS sg13_lv_nmos L=0.52u W=0.15u AS=0.162p AD=0.0855p
+ PS=2.16u PD=1.14u
M$66 VSS OUTN$16 OUTP$16 VSS sg13_lv_nmos L=0.52u W=0.15u AS=0.0855p AD=0.162p
+ PS=1.14u PD=2.16u
M$67 OUTP$88 OUTN$88 VSS VSS sg13_lv_nmos L=0.52u W=0.15u AS=0.162p AD=0.0855p
+ PS=2.16u PD=1.14u
M$68 VSS OUTP$88 OUTN$88 VSS sg13_lv_nmos L=0.52u W=0.15u AS=0.0855p AD=0.162p
+ PS=1.14u PD=2.16u
M$69 OUTP$89 OUTN$89 VSS VSS sg13_lv_nmos L=0.52u W=0.15u AS=0.162p AD=0.0855p
+ PS=2.16u PD=1.14u
M$70 VSS OUTP$89 OUTN$89 VSS sg13_lv_nmos L=0.52u W=0.15u AS=0.0855p AD=0.162p
+ PS=1.14u PD=2.16u
M$71 OUTN$17 OUTP$17 VSS VSS sg13_lv_nmos L=0.52u W=0.15u AS=0.162p AD=0.0855p
+ PS=2.16u PD=1.14u
M$72 VSS OUTN$17 OUTP$17 VSS sg13_lv_nmos L=0.52u W=0.15u AS=0.0855p AD=0.162p
+ PS=1.14u PD=2.16u
M$73 OUTP$90 OUTN$90 VSS VSS sg13_lv_nmos L=0.52u W=0.15u AS=0.162p AD=0.0855p
+ PS=2.16u PD=1.14u
M$74 VSS OUTP$90 OUTN$90 VSS sg13_lv_nmos L=0.52u W=0.15u AS=0.0855p AD=0.162p
+ PS=1.14u PD=2.16u
M$75 OUTN$18 OUTP$18 VSS VSS sg13_lv_nmos L=0.52u W=0.15u AS=0.162p AD=0.0855p
+ PS=2.16u PD=1.14u
M$76 VSS OUTN$18 OUTP$18 VSS sg13_lv_nmos L=0.52u W=0.15u AS=0.0855p AD=0.162p
+ PS=1.14u PD=2.16u
M$77 OUTP$91 OUTN$91 VSS VSS sg13_lv_nmos L=0.52u W=0.15u AS=0.162p AD=0.0855p
+ PS=2.16u PD=1.14u
M$78 VSS OUTP$91 OUTN$91 VSS sg13_lv_nmos L=0.52u W=0.15u AS=0.0855p AD=0.162p
+ PS=1.14u PD=2.16u
M$79 OUTN$19 OUTP$19 VSS VSS sg13_lv_nmos L=0.52u W=0.15u AS=0.162p AD=0.0855p
+ PS=2.16u PD=1.14u
M$80 VSS OUTN$19 OUTP$19 VSS sg13_lv_nmos L=0.52u W=0.15u AS=0.0855p AD=0.162p
+ PS=1.14u PD=2.16u
M$81 OUTN$20 OUTP$20 VSS VSS sg13_lv_nmos L=0.52u W=0.15u AS=0.162p AD=0.0855p
+ PS=2.16u PD=1.14u
M$82 VSS OUTN$20 OUTP$20 VSS sg13_lv_nmos L=0.52u W=0.15u AS=0.0855p AD=0.162p
+ PS=1.14u PD=2.16u
M$83 OUTP$92 OUTN$92 VSS VSS sg13_lv_nmos L=0.52u W=0.15u AS=0.162p AD=0.0855p
+ PS=2.16u PD=1.14u
M$84 VSS OUTP$92 OUTN$92 VSS sg13_lv_nmos L=0.52u W=0.15u AS=0.0855p AD=0.162p
+ PS=1.14u PD=2.16u
M$85 OUTN$21 OUTP$21 VSS VSS sg13_lv_nmos L=0.52u W=0.15u AS=0.162p AD=0.0855p
+ PS=2.16u PD=1.14u
M$86 VSS OUTN$21 OUTP$21 VSS sg13_lv_nmos L=0.52u W=0.15u AS=0.0855p AD=0.162p
+ PS=1.14u PD=2.16u
M$87 OUTP$93 OUTN$93 VSS VSS sg13_lv_nmos L=0.52u W=0.15u AS=0.162p AD=0.0855p
+ PS=2.16u PD=1.14u
M$88 VSS OUTP$93 OUTN$93 VSS sg13_lv_nmos L=0.52u W=0.15u AS=0.0855p AD=0.162p
+ PS=1.14u PD=2.16u
M$89 OUTP$94 OUTN$94 VSS VSS sg13_lv_nmos L=0.52u W=0.15u AS=0.162p AD=0.0855p
+ PS=2.16u PD=1.14u
M$90 VSS OUTP$94 OUTN$94 VSS sg13_lv_nmos L=0.52u W=0.15u AS=0.0855p AD=0.162p
+ PS=1.14u PD=2.16u
M$91 OUTN$22 OUTP$22 VSS VSS sg13_lv_nmos L=0.52u W=0.15u AS=0.162p AD=0.0855p
+ PS=2.16u PD=1.14u
M$92 VSS OUTN$22 OUTP$22 VSS sg13_lv_nmos L=0.52u W=0.15u AS=0.0855p AD=0.162p
+ PS=1.14u PD=2.16u
M$93 OUTN$23 OUTP$23 VSS VSS sg13_lv_nmos L=0.52u W=0.15u AS=0.162p AD=0.0855p
+ PS=2.16u PD=1.14u
M$94 VSS OUTN$23 OUTP$23 VSS sg13_lv_nmos L=0.52u W=0.15u AS=0.0855p AD=0.162p
+ PS=1.14u PD=2.16u
M$95 OUTP$95 OUTN$95 VSS VSS sg13_lv_nmos L=0.52u W=0.15u AS=0.162p AD=0.0855p
+ PS=2.16u PD=1.14u
M$96 VSS OUTP$95 OUTN$95 VSS sg13_lv_nmos L=0.52u W=0.15u AS=0.0855p AD=0.162p
+ PS=1.14u PD=2.16u
M$97 OUTN$24 OUTP$24 VSS VSS sg13_lv_nmos L=0.52u W=0.15u AS=0.162p AD=0.0855p
+ PS=2.16u PD=1.14u
M$98 VSS OUTN$24 OUTP$24 VSS sg13_lv_nmos L=0.52u W=0.15u AS=0.0855p AD=0.162p
+ PS=1.14u PD=2.16u
M$99 OUTP$96 OUTN$96 VSS VSS sg13_lv_nmos L=0.52u W=0.15u AS=0.162p AD=0.0855p
+ PS=2.16u PD=1.14u
M$100 VSS OUTP$96 OUTN$96 VSS sg13_lv_nmos L=0.52u W=0.15u AS=0.0855p AD=0.162p
+ PS=1.14u PD=2.16u
M$101 OUTN$25 OUTP$25 VSS VSS sg13_lv_nmos L=0.52u W=0.15u AS=0.162p AD=0.0855p
+ PS=2.16u PD=1.14u
M$102 VSS OUTN$25 OUTP$25 VSS sg13_lv_nmos L=0.52u W=0.15u AS=0.0855p AD=0.162p
+ PS=1.14u PD=2.16u
M$103 OUTP$97 OUTN$97 VSS VSS sg13_lv_nmos L=0.52u W=0.15u AS=0.162p AD=0.0855p
+ PS=2.16u PD=1.14u
M$104 VSS OUTP$97 OUTN$97 VSS sg13_lv_nmos L=0.52u W=0.15u AS=0.0855p AD=0.162p
+ PS=1.14u PD=2.16u
M$105 OUTP$98 OUTN$98 VSS VSS sg13_lv_nmos L=0.52u W=0.15u AS=0.162p AD=0.0855p
+ PS=2.16u PD=1.14u
M$106 VSS OUTP$98 OUTN$98 VSS sg13_lv_nmos L=0.52u W=0.15u AS=0.0855p AD=0.162p
+ PS=1.14u PD=2.16u
M$107 OUTN$26 OUTP$26 VSS VSS sg13_lv_nmos L=0.52u W=0.15u AS=0.162p AD=0.0855p
+ PS=2.16u PD=1.14u
M$108 VSS OUTN$26 OUTP$26 VSS sg13_lv_nmos L=0.52u W=0.15u AS=0.0855p AD=0.162p
+ PS=1.14u PD=2.16u
M$109 OUTN$27 OUTP$27 VSS VSS sg13_lv_nmos L=0.52u W=0.15u AS=0.162p AD=0.0855p
+ PS=2.16u PD=1.14u
M$110 VSS OUTN$27 OUTP$27 VSS sg13_lv_nmos L=0.52u W=0.15u AS=0.0855p AD=0.162p
+ PS=1.14u PD=2.16u
M$111 OUTP$99 OUTN$99 VSS VSS sg13_lv_nmos L=0.52u W=0.15u AS=0.162p AD=0.0855p
+ PS=2.16u PD=1.14u
M$112 VSS OUTP$99 OUTN$99 VSS sg13_lv_nmos L=0.52u W=0.15u AS=0.0855p AD=0.162p
+ PS=1.14u PD=2.16u
M$113 OUTP$100 OUTN$100 VSS VSS sg13_lv_nmos L=0.52u W=0.15u AS=0.162p
+ AD=0.0855p PS=2.16u PD=1.14u
M$114 VSS OUTP$100 OUTN$100 VSS sg13_lv_nmos L=0.52u W=0.15u AS=0.0855p
+ AD=0.162p PS=1.14u PD=2.16u
M$115 OUTN$28 OUTP$28 VSS VSS sg13_lv_nmos L=0.52u W=0.15u AS=0.162p AD=0.0855p
+ PS=2.16u PD=1.14u
M$116 VSS OUTN$28 OUTP$28 VSS sg13_lv_nmos L=0.52u W=0.15u AS=0.0855p AD=0.162p
+ PS=1.14u PD=2.16u
M$117 OUTN$29 OUTP$29 VSS VSS sg13_lv_nmos L=0.52u W=0.15u AS=0.162p AD=0.0855p
+ PS=2.16u PD=1.14u
M$118 VSS OUTN$29 OUTP$29 VSS sg13_lv_nmos L=0.52u W=0.15u AS=0.0855p AD=0.162p
+ PS=1.14u PD=2.16u
M$119 OUTP$101 OUTN$101 VSS VSS sg13_lv_nmos L=0.52u W=0.15u AS=0.162p
+ AD=0.0855p PS=2.16u PD=1.14u
M$120 VSS OUTP$101 OUTN$101 VSS sg13_lv_nmos L=0.52u W=0.15u AS=0.0855p
+ AD=0.162p PS=1.14u PD=2.16u
M$121 OUTN$30 OUTP$30 VSS VSS sg13_lv_nmos L=0.52u W=0.15u AS=0.162p AD=0.0855p
+ PS=2.16u PD=1.14u
M$122 VSS OUTN$30 OUTP$30 VSS sg13_lv_nmos L=0.52u W=0.15u AS=0.0855p AD=0.162p
+ PS=1.14u PD=2.16u
M$123 OUTP$102 OUTN$102 VSS VSS sg13_lv_nmos L=0.52u W=0.15u AS=0.162p
+ AD=0.0855p PS=2.16u PD=1.14u
M$124 VSS OUTP$102 OUTN$102 VSS sg13_lv_nmos L=0.52u W=0.15u AS=0.0855p
+ AD=0.162p PS=1.14u PD=2.16u
M$125 OUTP$103 OUTN$103 VSS VSS sg13_lv_nmos L=0.52u W=0.15u AS=0.162p
+ AD=0.0855p PS=2.16u PD=1.14u
M$126 VSS OUTP$103 OUTN$103 VSS sg13_lv_nmos L=0.52u W=0.15u AS=0.0855p
+ AD=0.162p PS=1.14u PD=2.16u
M$127 OUTN$31 OUTP$31 VSS VSS sg13_lv_nmos L=0.52u W=0.15u AS=0.162p AD=0.0855p
+ PS=2.16u PD=1.14u
M$128 VSS OUTN$31 OUTP$31 VSS sg13_lv_nmos L=0.52u W=0.15u AS=0.0855p AD=0.162p
+ PS=1.14u PD=2.16u
M$129 OUTP$104 OUTN$104 VSS VSS sg13_lv_nmos L=0.52u W=0.15u AS=0.162p
+ AD=0.0855p PS=2.16u PD=1.14u
M$130 VSS OUTP$104 OUTN$104 VSS sg13_lv_nmos L=0.52u W=0.15u AS=0.0855p
+ AD=0.162p PS=1.14u PD=2.16u
M$131 OUTN$32 OUTP$32 VSS VSS sg13_lv_nmos L=0.52u W=0.15u AS=0.162p AD=0.0855p
+ PS=2.16u PD=1.14u
M$132 VSS OUTN$32 OUTP$32 VSS sg13_lv_nmos L=0.52u W=0.15u AS=0.0855p AD=0.162p
+ PS=1.14u PD=2.16u
M$133 OUTP$105 OUTN$105 VSS VSS sg13_lv_nmos L=0.52u W=0.15u AS=0.162p
+ AD=0.0855p PS=2.16u PD=1.14u
M$134 VSS OUTP$105 OUTN$105 VSS sg13_lv_nmos L=0.52u W=0.15u AS=0.0855p
+ AD=0.162p PS=1.14u PD=2.16u
M$135 OUTN$33 OUTP$33 VSS VSS sg13_lv_nmos L=0.52u W=0.15u AS=0.162p AD=0.0855p
+ PS=2.16u PD=1.14u
M$136 VSS OUTN$33 OUTP$33 VSS sg13_lv_nmos L=0.52u W=0.15u AS=0.0855p AD=0.162p
+ PS=1.14u PD=2.16u
M$137 OUTN$34 OUTP$34 VSS VSS sg13_lv_nmos L=0.52u W=0.15u AS=0.162p AD=0.0855p
+ PS=2.16u PD=1.14u
M$138 VSS OUTN$34 OUTP$34 VSS sg13_lv_nmos L=0.52u W=0.15u AS=0.0855p AD=0.162p
+ PS=1.14u PD=2.16u
M$139 OUTP$106 OUTN$106 VSS VSS sg13_lv_nmos L=0.52u W=0.15u AS=0.162p
+ AD=0.0855p PS=2.16u PD=1.14u
M$140 VSS OUTP$106 OUTN$106 VSS sg13_lv_nmos L=0.52u W=0.15u AS=0.0855p
+ AD=0.162p PS=1.14u PD=2.16u
M$141 OUTN$35 OUTP$35 VSS VSS sg13_lv_nmos L=0.52u W=0.15u AS=0.162p AD=0.0855p
+ PS=2.16u PD=1.14u
M$142 VSS OUTN$35 OUTP$35 VSS sg13_lv_nmos L=0.52u W=0.15u AS=0.0855p AD=0.162p
+ PS=1.14u PD=2.16u
M$143 OUTP$107 OUTN$107 VSS VSS sg13_lv_nmos L=0.52u W=0.15u AS=0.162p
+ AD=0.0855p PS=2.16u PD=1.14u
M$144 VSS OUTP$107 OUTN$107 VSS sg13_lv_nmos L=0.52u W=0.15u AS=0.0855p
+ AD=0.162p PS=1.14u PD=2.16u
M$145 OUTP$108 OUTN$108 VSS VSS sg13_lv_nmos L=0.52u W=0.15u AS=0.162p
+ AD=0.0855p PS=2.16u PD=1.14u
M$146 VSS OUTP$108 OUTN$108 VSS sg13_lv_nmos L=0.52u W=0.15u AS=0.0855p
+ AD=0.162p PS=1.14u PD=2.16u
M$147 OUTN$36 OUTP$36 VSS VSS sg13_lv_nmos L=0.52u W=0.15u AS=0.162p AD=0.0855p
+ PS=2.16u PD=1.14u
M$148 VSS OUTN$36 OUTP$36 VSS sg13_lv_nmos L=0.52u W=0.15u AS=0.0855p AD=0.162p
+ PS=1.14u PD=2.16u
M$149 OUTP$109 OUTN$109 VSS VSS sg13_lv_nmos L=0.52u W=0.15u AS=0.162p
+ AD=0.0855p PS=2.16u PD=1.14u
M$150 VSS OUTP$109 OUTN$109 VSS sg13_lv_nmos L=0.52u W=0.15u AS=0.0855p
+ AD=0.162p PS=1.14u PD=2.16u
M$151 OUTN$37 OUTP$37 VSS VSS sg13_lv_nmos L=0.52u W=0.15u AS=0.162p AD=0.0855p
+ PS=2.16u PD=1.14u
M$152 VSS OUTN$37 OUTP$37 VSS sg13_lv_nmos L=0.52u W=0.15u AS=0.0855p AD=0.162p
+ PS=1.14u PD=2.16u
M$153 OUTN$38 OUTP$38 VSS VSS sg13_lv_nmos L=0.52u W=0.15u AS=0.162p AD=0.0855p
+ PS=2.16u PD=1.14u
M$154 VSS OUTN$38 OUTP$38 VSS sg13_lv_nmos L=0.52u W=0.15u AS=0.0855p AD=0.162p
+ PS=1.14u PD=2.16u
M$155 OUTP$110 OUTN$110 VSS VSS sg13_lv_nmos L=0.52u W=0.15u AS=0.162p
+ AD=0.0855p PS=2.16u PD=1.14u
M$156 VSS OUTP$110 OUTN$110 VSS sg13_lv_nmos L=0.52u W=0.15u AS=0.0855p
+ AD=0.162p PS=1.14u PD=2.16u
M$157 OUTN$39 OUTP$39 VSS VSS sg13_lv_nmos L=0.52u W=0.15u AS=0.162p AD=0.0855p
+ PS=2.16u PD=1.14u
M$158 VSS OUTN$39 OUTP$39 VSS sg13_lv_nmos L=0.52u W=0.15u AS=0.0855p AD=0.162p
+ PS=1.14u PD=2.16u
M$159 OUTP$111 OUTN$111 VSS VSS sg13_lv_nmos L=0.52u W=0.15u AS=0.162p
+ AD=0.0855p PS=2.16u PD=1.14u
M$160 VSS OUTP$111 OUTN$111 VSS sg13_lv_nmos L=0.52u W=0.15u AS=0.0855p
+ AD=0.162p PS=1.14u PD=2.16u
M$161 OUTN$40 OUTP$40 VSS VSS sg13_lv_nmos L=0.52u W=0.15u AS=0.162p AD=0.0855p
+ PS=2.16u PD=1.14u
M$162 VSS OUTN$40 OUTP$40 VSS sg13_lv_nmos L=0.52u W=0.15u AS=0.0855p AD=0.162p
+ PS=1.14u PD=2.16u
M$163 OUTP$112 OUTN$112 VSS VSS sg13_lv_nmos L=0.52u W=0.15u AS=0.162p
+ AD=0.0855p PS=2.16u PD=1.14u
M$164 VSS OUTP$112 OUTN$112 VSS sg13_lv_nmos L=0.52u W=0.15u AS=0.0855p
+ AD=0.162p PS=1.14u PD=2.16u
M$165 OUTN$41 OUTP$41 VSS VSS sg13_lv_nmos L=0.52u W=0.15u AS=0.162p AD=0.0855p
+ PS=2.16u PD=1.14u
M$166 VSS OUTN$41 OUTP$41 VSS sg13_lv_nmos L=0.52u W=0.15u AS=0.0855p AD=0.162p
+ PS=1.14u PD=2.16u
M$167 OUTP$113 OUTN$113 VSS VSS sg13_lv_nmos L=0.52u W=0.15u AS=0.162p
+ AD=0.0855p PS=2.16u PD=1.14u
M$168 VSS OUTP$113 OUTN$113 VSS sg13_lv_nmos L=0.52u W=0.15u AS=0.0855p
+ AD=0.162p PS=1.14u PD=2.16u
M$169 OUTP$114 OUTN$114 VSS VSS sg13_lv_nmos L=0.52u W=0.15u AS=0.162p
+ AD=0.0855p PS=2.16u PD=1.14u
M$170 VSS OUTP$114 OUTN$114 VSS sg13_lv_nmos L=0.52u W=0.15u AS=0.0855p
+ AD=0.162p PS=1.14u PD=2.16u
M$171 OUTN$42 OUTP$42 VSS VSS sg13_lv_nmos L=0.52u W=0.15u AS=0.162p AD=0.0855p
+ PS=2.16u PD=1.14u
M$172 VSS OUTN$42 OUTP$42 VSS sg13_lv_nmos L=0.52u W=0.15u AS=0.0855p AD=0.162p
+ PS=1.14u PD=2.16u
M$173 OUTP$115 OUTN$115 VSS VSS sg13_lv_nmos L=0.52u W=0.15u AS=0.162p
+ AD=0.0855p PS=2.16u PD=1.14u
M$174 VSS OUTP$115 OUTN$115 VSS sg13_lv_nmos L=0.52u W=0.15u AS=0.0855p
+ AD=0.162p PS=1.14u PD=2.16u