* NGSPICE file created from heichips25_pudding.ext - technology: ihp-sg13g2

* Black-box entry subcircuit for sg13g2_decap_8 abstract view
.subckt sg13g2_decap_8 VDD VSS
.ends

* Black-box entry subcircuit for sg13g2_fill_1 abstract view
.subckt sg13g2_fill_1 VDD VSS
.ends

* Black-box entry subcircuit for sg13g2_fill_2 abstract view
.subckt sg13g2_fill_2 VDD VSS
.ends

* Black-box entry subcircuit for sg13g2_dfrbpq_1 abstract view
.subckt sg13g2_dfrbpq_1 RESET_B VSS VDD D Q CLK
.ends

* Black-box entry subcircuit for sg13g2_buf_1 abstract view
.subckt sg13g2_buf_1 A X VDD VSS
.ends

* Black-box entry subcircuit for sg13g2_o21ai_1 abstract view
.subckt sg13g2_o21ai_1 B1 VDD Y VSS A1 A2
.ends

* Black-box entry subcircuit for sg13g2_buf_8 abstract view
.subckt sg13g2_buf_8 A X VDD VSS
.ends

* Black-box entry subcircuit for sg13g2_inv_1 abstract view
.subckt sg13g2_inv_1 VDD Y A VSS
.ends

* Black-box entry subcircuit for sg13g2_a21o_1 abstract view
.subckt sg13g2_a21o_1 A2 A1 B1 X VDD VSS
.ends

* Black-box entry subcircuit for sg13g2_a22oi_1 abstract view
.subckt sg13g2_a22oi_1 Y B1 B2 A2 A1 VDD VSS
.ends

* Black-box entry subcircuit for sg13g2_decap_4 abstract view
.subckt sg13g2_decap_4 VDD VSS
.ends

* Black-box entry subcircuit for sg13g2_a21oi_1 abstract view
.subckt sg13g2_a21oi_1 VSS VDD A1 A2 Y B1
.ends

* Black-box entry subcircuit for sg13g2_buf_16 abstract view
.subckt sg13g2_buf_16 X A VDD VSS
.ends

* Black-box entry subcircuit for sg13g2_or2_1 abstract view
.subckt sg13g2_or2_1 VSS VDD X B A
.ends

* Black-box entry subcircuit for sg13g2_nor2b_1 abstract view
.subckt sg13g2_nor2b_1 A B_N Y VDD VSS
.ends

* Black-box entry subcircuit for sg13g2_nand2_1 abstract view
.subckt sg13g2_nand2_1 Y A B VDD VSS
.ends

* Black-box entry subcircuit for sg13g2_nor2_1 abstract view
.subckt sg13g2_nor2_1 A B Y VDD VSS
.ends

* Black-box entry subcircuit for sg13g2_tiehi abstract view
.subckt sg13g2_tiehi VDD VSS L_HI
.ends

* Black-box entry subcircuit for analog_wires abstract view
.subckt analog_wires VcascP[0] VcascP[1] Iout[0] VDDA[0] VDDA[1] VbiasP[1] VbiasP[0]
+ VcascP[2] VcascP[3] Iout[1] VDDA[2] VDDA[3] VbiasP[3] VbiasP[2] i_in i_out
.ends

* Black-box entry subcircuit for dac32module abstract view
.subckt dac32module EN[1] ENB[1] EN[2] ENB[2] ON[16] ONB[16] ON[17] ONB[17] ON[18]
+ ONB[18] ON[19] ONB[19] ON[20] ONB[20] ON[21] ONB[21] ON[22] ONB[22] ON[23] ONB[23]
+ ON[24] ONB[24] ON[25] ONB[25] ON[26] ONB[26] ON[27] ONB[27] ON[28] ONB[28] ON[29]
+ ONB[29] ON[30] ONB[30] ON[31] ONB[31] EN[3] ENB[3] ON[0] ONB[0] ON[1] ONB[1] ON[2]
+ ONB[2] ON[3] ONB[3] ON[4] ONB[4] ON[5] ONB[5] ON[6] EN[0] ENB[0] ONB[6] ON[7] ONB[7]
+ ON[8] ONB[8] ON[9] ONB[9] ON[10] ONB[10] ON[11] ONB[11] ON[12] ONB[12] ON[13] ONB[13]
+ ON[14] ONB[14] ON[15] ONB[15] Iout VbiasP[0] VbiasP[1] VcascP[1] VcascP[0] VDD VSS
.ends

* Black-box entry subcircuit for sg13g2_antennanp abstract view
.subckt sg13g2_antennanp VDD VSS A
.ends

.subckt heichips25_pudding VGND VPWR clk ena i_in i_out rst_n ui_in[0] ui_in[1] ui_in[2]
+ ui_in[3] ui_in[4] ui_in[5] ui_in[6] ui_in[7] uio_in[0] uio_in[1] uio_in[2] uio_in[3]
+ uio_in[4] uio_in[5] uio_in[6] uio_in[7] uio_oe[0] uio_oe[1] uio_oe[2] uio_oe[3]
+ uio_oe[4] uio_oe[5] uio_oe[6] uio_oe[7] uio_out[0] uio_out[1] uio_out[2] uio_out[3]
+ uio_out[4] uio_out[5] uio_out[6] uio_out[7] uo_out[0] uo_out[1] uo_out[2] uo_out[3]
+ uo_out[4] uo_out[5] uo_out[6] uo_out[7]
XFILLER_27_406 VPWR VGND sg13g2_decap_8
XFILLER_39_266 VPWR VGND sg13g2_decap_8
XFILLER_10_328 VPWR VGND sg13g2_decap_8
XFILLER_22_111 VPWR VGND sg13g2_decap_8
XFILLER_22_188 VPWR VGND sg13g2_decap_8
XFILLER_23_612 VPWR VGND sg13g2_decap_8
XFILLER_35_494 VPWR VGND sg13g2_decap_8
XFILLER_7_7 VPWR VGND sg13g2_decap_8
XFILLER_13_122 VPWR VGND sg13g2_decap_8
XFILLER_14_601 VPWR VGND sg13g2_decap_8
XFILLER_14_612 VPWR VGND sg13g2_fill_1
XFILLER_14_634 VPWR VGND sg13g2_fill_2
XFILLER_18_428 VPWR VGND sg13g2_decap_8
XFILLER_26_85 VPWR VGND sg13g2_decap_8
XFILLER_41_420 VPWR VGND sg13g2_decap_8
XFILLER_45_203 VPWR VGND sg13g2_decap_8
XFILLER_13_199 VPWR VGND sg13g2_decap_8
XFILLER_41_497 VPWR VGND sg13g2_decap_8
XFILLER_42_84 VPWR VGND sg13g2_decap_8
XFILLER_9_137 VPWR VGND sg13g2_decap_8
XFILLER_1_560 VPWR VGND sg13g2_decap_8
XFILLER_5_354 VPWR VGND sg13g2_decap_8
XFILLER_36_258 VPWR VGND sg13g2_decap_8
XFILLER_37_704 VPWR VGND sg13g2_fill_1
XFILLER_3_67 VPWR VGND sg13g2_decap_8
XFILLER_49_564 VPWR VGND sg13g2_decap_8
XFILLER_17_483 VPWR VGND sg13g2_decap_8
XFILLER_32_442 VPWR VGND sg13g2_decap_8
XFILLER_44_280 VPWR VGND sg13g2_decap_8
XFILLER_20_659 VPWR VGND sg13g2_decap_8
X_0985_ net106 VGND VPWR _0145_ state\[17\] clknet_5_5__leaf_clk sg13g2_dfrbpq_1
XFILLER_8_181 VPWR VGND sg13g2_decap_8
XFILLER_28_704 VPWR VGND sg13g2_decap_8
Xfanout105 net108 net105 VPWR VGND sg13g2_buf_1
Xfanout116 net117 net116 VPWR VGND sg13g2_buf_1
XFILLER_27_203 VPWR VGND sg13g2_decap_8
XFILLER_35_291 VPWR VGND sg13g2_decap_8
XFILLER_42_217 VPWR VGND sg13g2_decap_8
XFILLER_10_125 VPWR VGND sg13g2_decap_8
XFILLER_23_486 VPWR VGND sg13g2_decap_8
XFILLER_7_619 VPWR VGND sg13g2_decap_8
XFILLER_7_608 VPWR VGND sg13g2_fill_1
XFILLER_12_76 VPWR VGND sg13g2_decap_8
XFILLER_2_368 VPWR VGND sg13g2_decap_8
XFILLER_5_4 VPWR VGND sg13g2_decap_8
XFILLER_18_225 VPWR VGND sg13g2_decap_8
XFILLER_37_40 VPWR VGND sg13g2_fill_2
XFILLER_46_567 VPWR VGND sg13g2_decap_8
XFILLER_14_475 VPWR VGND sg13g2_decap_8
XFILLER_42_762 VPWR VGND sg13g2_fill_2
XFILLER_42_784 VPWR VGND sg13g2_fill_2
XFILLER_41_294 VPWR VGND sg13g2_decap_8
X_0770_ _0409_ VPWR _0178_ VGND net95 _0009_ sg13g2_o21ai_1
XFILLER_5_151 VPWR VGND sg13g2_decap_8
XFILLER_17_280 VPWR VGND sg13g2_decap_8
XFILLER_24_239 VPWR VGND sg13g2_decap_8
XFILLER_49_361 VPWR VGND sg13g2_decap_8
XFILLER_20_456 VPWR VGND sg13g2_decap_8
X_0968_ net101 VGND VPWR _0128_ state\[0\] clknet_5_8__leaf_clk sg13g2_dfrbpq_1
Xclkbuf_4_12_0_clk clknet_0_clk clknet_4_12_0_clk VPWR VGND sg13g2_buf_8
X_0899_ VPWR _0249_ daisychain\[56\] VGND sg13g2_inv_1
XFILLER_28_501 VPWR VGND sg13g2_decap_8
XFILLER_23_283 VPWR VGND sg13g2_decap_8
XFILLER_28_578 VPWR VGND sg13g2_decap_8
XFILLER_43_504 VPWR VGND sg13g2_decap_8
XFILLER_23_31 VPWR VGND sg13g2_fill_2
XFILLER_3_611 VPWR VGND sg13g2_fill_2
XFILLER_7_427 VPWR VGND sg13g2_decap_8
XFILLER_2_165 VPWR VGND sg13g2_decap_8
XFILLER_0_35 VPWR VGND sg13g2_decap_8
XFILLER_19_567 VPWR VGND sg13g2_decap_8
XFILLER_34_537 VPWR VGND sg13g2_decap_8
XFILLER_46_364 VPWR VGND sg13g2_decap_8
XFILLER_47_821 VPWR VGND sg13g2_fill_2
XFILLER_14_272 VPWR VGND sg13g2_decap_8
XFILLER_15_784 VPWR VGND sg13g2_fill_1
XFILLER_42_581 VPWR VGND sg13g2_decap_8
X_0822_ VPWR _0041_ state\[18\] VGND sg13g2_inv_1
XFILLER_9_88 VPWR VGND sg13g2_decap_8
XFILLER_9_11 VPWR VGND sg13g2_decap_8
X_0753_ _0358_ VPWR _0161_ VGND net89 _0011_ sg13g2_o21ai_1
X_0684_ _0248_ net74 _0423_ _0424_ VPWR VGND sg13g2_a21o_1
XFILLER_6_460 VPWR VGND sg13g2_decap_8
XFILLER_37_342 VPWR VGND sg13g2_decap_8
XFILLER_12_209 VPWR VGND sg13g2_decap_8
XFILLER_25_526 VPWR VGND sg13g2_decap_8
XFILLER_40_518 VPWR VGND sg13g2_decap_8
XFILLER_20_253 VPWR VGND sg13g2_decap_8
XFILLER_16_526 VPWR VGND sg13g2_decap_8
XFILLER_18_64 VPWR VGND sg13g2_decap_8
XFILLER_28_375 VPWR VGND sg13g2_decap_8
XFILLER_43_301 VPWR VGND sg13g2_decap_8
XFILLER_11_242 VPWR VGND sg13g2_decap_8
XFILLER_12_710 VPWR VGND sg13g2_fill_1
XFILLER_24_592 VPWR VGND sg13g2_decap_8
XFILLER_31_529 VPWR VGND sg13g2_decap_8
XFILLER_34_96 VPWR VGND sg13g2_decap_8
XFILLER_43_378 VPWR VGND sg13g2_decap_8
XFILLER_3_452 VPWR VGND sg13g2_decap_8
XFILLER_7_224 VPWR VGND sg13g2_decap_8
XFILLER_38_139 VPWR VGND sg13g2_decap_8
XFILLER_19_364 VPWR VGND sg13g2_decap_8
XFILLER_34_334 VPWR VGND sg13g2_decap_8
XFILLER_46_161 VPWR VGND sg13g2_decap_8
XFILLER_47_651 VPWR VGND sg13g2_decap_8
X_1021_ net115 VGND VPWR _0181_ state\[53\] clknet_5_30__leaf_clk sg13g2_dfrbpq_1
X_0805_ VPWR _0202_ daisychain\[9\] VGND sg13g2_inv_1
X_0736_ _0307_ VPWR _0144_ VGND net85 _0039_ sg13g2_o21ai_1
X_0667_ net93 VPWR _0411_ VGND net71 state\[51\] sg13g2_o21ai_1
X_0598_ _0097_ _0358_ _0359_ net46 _0226_ VPWR VGND sg13g2_a22oi_1
XFILLER_25_323 VPWR VGND sg13g2_decap_8
XFILLER_29_139 VPWR VGND sg13g2_decap_8
XFILLER_13_518 VPWR VGND sg13g2_decap_8
XFILLER_21_540 VPWR VGND sg13g2_decap_8
XFILLER_40_315 VPWR VGND sg13g2_decap_8
XFILLER_5_706 VPWR VGND sg13g2_decap_4
XFILLER_4_249 VPWR VGND sg13g2_decap_8
XFILLER_0_455 VPWR VGND sg13g2_decap_8
XFILLER_29_41 VPWR VGND sg13g2_decap_8
XFILLER_48_448 VPWR VGND sg13g2_decap_8
XFILLER_16_323 VPWR VGND sg13g2_decap_8
XFILLER_28_172 VPWR VGND sg13g2_decap_8
XFILLER_31_326 VPWR VGND sg13g2_decap_8
XFILLER_35_109 VPWR VGND sg13g2_decap_8
XFILLER_43_175 VPWR VGND sg13g2_decap_8
XFILLER_44_665 VPWR VGND sg13g2_decap_8
XFILLER_45_84 VPWR VGND sg13g2_decap_8
X_0521_ VGND VPWR net26 daisychain\[13\] _0302_ net39 sg13g2_a21oi_1
X_0452_ VPWR _0019_ state\[59\] VGND sg13g2_inv_1
XFILLER_6_89 VPWR VGND sg13g2_decap_8
XFILLER_19_161 VPWR VGND sg13g2_decap_8
XFILLER_39_448 VPWR VGND sg13g2_decap_8
XFILLER_34_131 VPWR VGND sg13g2_decap_8
X_1004_ net109 VGND VPWR _0164_ state\[36\] clknet_5_27__leaf_clk sg13g2_dfrbpq_1
X_0719_ _0127_ _0449_ _0450_ net33 _0256_ VPWR VGND sg13g2_a22oi_1
XFILLER_13_304 VPWR VGND sg13g2_decap_8
XFILLER_25_120 VPWR VGND sg13g2_decap_8
XFILLER_26_610 VPWR VGND sg13g2_decap_8
XFILLER_26_665 VPWR VGND sg13g2_decap_8
XFILLER_26_698 VPWR VGND sg13g2_decap_4
XFILLER_38_492 VPWR VGND sg13g2_decap_4
XFILLER_41_602 VPWR VGND sg13g2_decap_8
XFILLER_15_76 VPWR VGND sg13g2_decap_8
XFILLER_25_197 VPWR VGND sg13g2_decap_8
XFILLER_31_53 VPWR VGND sg13g2_decap_8
XFILLER_40_112 VPWR VGND sg13g2_decap_8
XFILLER_40_189 VPWR VGND sg13g2_decap_8
XFILLER_9_319 VPWR VGND sg13g2_decap_8
Xoutput7 net7 uio_out[0] VPWR VGND sg13g2_buf_1
Xoutput20 net20 uo_out[5] VPWR VGND sg13g2_buf_1
XFILLER_5_536 VPWR VGND sg13g2_decap_4
XFILLER_0_252 VPWR VGND sg13g2_decap_8
XFILLER_49_746 VPWR VGND sg13g2_decap_8
XFILLER_48_245 VPWR VGND sg13g2_decap_8
XFILLER_16_120 VPWR VGND sg13g2_decap_8
XFILLER_16_197 VPWR VGND sg13g2_decap_8
XFILLER_17_665 VPWR VGND sg13g2_decap_4
XFILLER_17_676 VPWR VGND sg13g2_decap_8
XFILLER_31_123 VPWR VGND sg13g2_decap_8
XFILLER_44_462 VPWR VGND sg13g2_decap_8
XFILLER_12_370 VPWR VGND sg13g2_decap_8
Xclkbuf_5_17__f_clk clknet_5_17__leaf_clk clknet_4_8_0_clk VPWR VGND sg13g2_buf_16
XFILLER_8_363 VPWR VGND sg13g2_decap_8
X_0504_ _0203_ net61 _0288_ _0289_ VPWR VGND sg13g2_a21o_1
XFILLER_35_473 VPWR VGND sg13g2_decap_8
XFILLER_39_245 VPWR VGND sg13g2_decap_8
XFILLER_10_307 VPWR VGND sg13g2_decap_8
XFILLER_22_167 VPWR VGND sg13g2_decap_8
XFILLER_23_668 VPWR VGND sg13g2_fill_2
XFILLER_18_407 VPWR VGND sg13g2_decap_8
XFILLER_13_101 VPWR VGND sg13g2_decap_8
XFILLER_26_484 VPWR VGND sg13g2_decap_8
XFILLER_26_64 VPWR VGND sg13g2_decap_8
XFILLER_41_476 VPWR VGND sg13g2_decap_8
XFILLER_45_259 VPWR VGND sg13g2_decap_8
XFILLER_9_116 VPWR VGND sg13g2_decap_8
XFILLER_13_178 VPWR VGND sg13g2_decap_8
XFILLER_42_63 VPWR VGND sg13g2_decap_8
XFILLER_5_333 VPWR VGND sg13g2_decap_8
XFILLER_3_46 VPWR VGND sg13g2_decap_8
XFILLER_17_462 VPWR VGND sg13g2_decap_8
XFILLER_36_237 VPWR VGND sg13g2_decap_8
XFILLER_45_782 VPWR VGND sg13g2_fill_2
XFILLER_49_543 VPWR VGND sg13g2_decap_8
XFILLER_20_638 VPWR VGND sg13g2_decap_8
XFILLER_32_421 VPWR VGND sg13g2_decap_8
XFILLER_32_498 VPWR VGND sg13g2_decap_8
X_0984_ net106 VGND VPWR _0144_ state\[16\] clknet_5_5__leaf_clk sg13g2_dfrbpq_1
XFILLER_8_160 VPWR VGND sg13g2_decap_8
Xfanout106 net107 net106 VPWR VGND sg13g2_buf_1
Xfanout117 net118 net117 VPWR VGND sg13g2_buf_1
XFILLER_23_465 VPWR VGND sg13g2_decap_8
XFILLER_27_259 VPWR VGND sg13g2_decap_8
XFILLER_35_270 VPWR VGND sg13g2_decap_8
XFILLER_10_104 VPWR VGND sg13g2_decap_8
XFILLER_12_55 VPWR VGND sg13g2_decap_8
XFILLER_3_804 VPWR VGND sg13g2_fill_1
XFILLER_2_347 VPWR VGND sg13g2_decap_8
XFILLER_18_204 VPWR VGND sg13g2_decap_8
XFILLER_46_546 VPWR VGND sg13g2_decap_8
XFILLER_14_454 VPWR VGND sg13g2_decap_8
XFILLER_26_281 VPWR VGND sg13g2_decap_8
XFILLER_41_273 VPWR VGND sg13g2_decap_8
XFILLER_6_620 VPWR VGND sg13g2_decap_4
XFILLER_5_130 VPWR VGND sg13g2_decap_8
XFILLER_49_340 VPWR VGND sg13g2_decap_8
XFILLER_18_771 VPWR VGND sg13g2_decap_8
XFILLER_24_218 VPWR VGND sg13g2_decap_8
XFILLER_37_557 VPWR VGND sg13g2_decap_4
XFILLER_20_435 VPWR VGND sg13g2_decap_8
XFILLER_32_295 VPWR VGND sg13g2_decap_8
X_0967_ net98 VGND VPWR _0127_ daisychain\[63\] clknet_5_10__leaf_clk sg13g2_dfrbpq_1
XFILLER_9_480 VPWR VGND sg13g2_decap_8
X_0898_ VPWR _0016_ state\[56\] VGND sg13g2_inv_1
XFILLER_28_557 VPWR VGND sg13g2_decap_8
XFILLER_11_424 VPWR VGND sg13g2_fill_2
XFILLER_23_262 VPWR VGND sg13g2_decap_8
XFILLER_24_730 VPWR VGND sg13g2_decap_8
XFILLER_36_590 VPWR VGND sg13g2_decap_8
XFILLER_7_406 VPWR VGND sg13g2_decap_8
XFILLER_11_479 VPWR VGND sg13g2_decap_8
XFILLER_23_87 VPWR VGND sg13g2_decap_8
XFILLER_2_144 VPWR VGND sg13g2_decap_8
XFILLER_47_800 VPWR VGND sg13g2_decap_8
XFILLER_48_84 VPWR VGND sg13g2_decap_8
XFILLER_0_14 VPWR VGND sg13g2_decap_8
XFILLER_19_546 VPWR VGND sg13g2_decap_8
XFILLER_34_516 VPWR VGND sg13g2_decap_8
XFILLER_46_343 VPWR VGND sg13g2_decap_8
XFILLER_14_251 VPWR VGND sg13g2_decap_8
XFILLER_42_560 VPWR VGND sg13g2_decap_8
X_0821_ VPWR _0210_ daisychain\[17\] VGND sg13g2_inv_1
X_0752_ _0355_ VPWR _0160_ VGND net91 _0000_ sg13g2_o21ai_1
XFILLER_9_67 VPWR VGND sg13g2_decap_8
X_0683_ net89 VPWR _0423_ VGND net68 state\[55\] sg13g2_o21ai_1
XFILLER_25_505 VPWR VGND sg13g2_decap_8
XFILLER_37_321 VPWR VGND sg13g2_decap_8
XFILLER_20_232 VPWR VGND sg13g2_decap_8
XFILLER_37_398 VPWR VGND sg13g2_decap_8
XFILLER_0_615 VPWR VGND sg13g2_fill_2
XFILLER_0_637 VPWR VGND sg13g2_fill_1
XFILLER_29_822 VPWR VGND sg13g2_fill_1
XFILLER_16_505 VPWR VGND sg13g2_decap_8
XFILLER_18_43 VPWR VGND sg13g2_decap_8
XFILLER_28_354 VPWR VGND sg13g2_decap_8
XFILLER_31_508 VPWR VGND sg13g2_decap_8
XFILLER_43_357 VPWR VGND sg13g2_decap_8
XFILLER_11_221 VPWR VGND sg13g2_decap_8
XFILLER_11_298 VPWR VGND sg13g2_decap_8
XFILLER_24_571 VPWR VGND sg13g2_decap_8
XFILLER_34_75 VPWR VGND sg13g2_decap_8
XFILLER_7_203 VPWR VGND sg13g2_decap_8
XFILLER_3_431 VPWR VGND sg13g2_decap_8
XFILLER_19_343 VPWR VGND sg13g2_decap_8
XFILLER_38_118 VPWR VGND sg13g2_decap_8
XFILLER_46_140 VPWR VGND sg13g2_decap_8
XFILLER_47_630 VPWR VGND sg13g2_decap_8
X_1020_ net115 VGND VPWR _0180_ state\[52\] clknet_5_29__leaf_clk sg13g2_dfrbpq_1
Xclkbuf_4_11_0_clk clknet_0_clk clknet_4_11_0_clk VPWR VGND sg13g2_buf_8
XFILLER_34_313 VPWR VGND sg13g2_decap_8
XFILLER_30_585 VPWR VGND sg13g2_decap_8
X_0804_ VPWR _0063_ state\[9\] VGND sg13g2_inv_1
X_0735_ _0304_ VPWR _0143_ VGND net84 _0038_ sg13g2_o21ai_1
XFILLER_29_118 VPWR VGND sg13g2_decap_8
XFILLER_41_0 VPWR VGND sg13g2_decap_8
X_0666_ _0114_ _0409_ _0410_ net51 _0243_ VPWR VGND sg13g2_a22oi_1
X_0597_ VGND VPWR net27 daisychain\[32\] _0359_ net46 sg13g2_a21oi_1
XFILLER_25_302 VPWR VGND sg13g2_decap_8
XFILLER_37_195 VPWR VGND sg13g2_decap_8
XFILLER_38_674 VPWR VGND sg13g2_fill_2
XFILLER_21_596 VPWR VGND sg13g2_decap_8
XFILLER_25_379 VPWR VGND sg13g2_decap_8
XFILLER_20_99 VPWR VGND sg13g2_decap_8
XFILLER_4_228 VPWR VGND sg13g2_decap_8
XFILLER_0_434 VPWR VGND sg13g2_decap_8
XFILLER_29_20 VPWR VGND sg13g2_decap_8
XFILLER_29_97 VPWR VGND sg13g2_decap_8
XFILLER_48_427 VPWR VGND sg13g2_decap_8
XFILLER_16_302 VPWR VGND sg13g2_decap_8
XFILLER_16_379 VPWR VGND sg13g2_decap_8
XFILLER_28_151 VPWR VGND sg13g2_decap_8
XFILLER_31_305 VPWR VGND sg13g2_decap_8
XFILLER_43_154 VPWR VGND sg13g2_decap_8
XFILLER_44_644 VPWR VGND sg13g2_decap_8
XFILLER_45_63 VPWR VGND sg13g2_decap_8
XFILLER_12_585 VPWR VGND sg13g2_decap_8
XFILLER_8_578 VPWR VGND sg13g2_fill_1
XFILLER_8_556 VPWR VGND sg13g2_fill_2
XFILLER_8_545 VPWR VGND sg13g2_decap_8
X_0520_ _0207_ net62 _0300_ _0301_ VPWR VGND sg13g2_a21o_1
XFILLER_6_68 VPWR VGND sg13g2_decap_8
XFILLER_19_140 VPWR VGND sg13g2_decap_8
XFILLER_34_110 VPWR VGND sg13g2_decap_8
XFILLER_39_427 VPWR VGND sg13g2_decap_8
X_1003_ net112 VGND VPWR _0163_ state\[35\] clknet_5_18__leaf_clk sg13g2_dfrbpq_1
XFILLER_22_349 VPWR VGND sg13g2_decap_8
XFILLER_30_382 VPWR VGND sg13g2_decap_8
XFILLER_34_187 VPWR VGND sg13g2_decap_8
X_0718_ VGND VPWR net32 daisychain\[62\] _0450_ net33 sg13g2_a21oi_1
X_0649_ VGND VPWR net27 daisychain\[45\] _0398_ net48 sg13g2_a21oi_1
XFILLER_15_55 VPWR VGND sg13g2_decap_8
XFILLER_25_176 VPWR VGND sg13g2_decap_8
XFILLER_38_482 VPWR VGND sg13g2_decap_4
XFILLER_41_658 VPWR VGND sg13g2_fill_1
XFILLER_21_393 VPWR VGND sg13g2_decap_8
XFILLER_31_32 VPWR VGND sg13g2_decap_8
XFILLER_40_168 VPWR VGND sg13g2_decap_8
XFILLER_41_669 VPWR VGND sg13g2_decap_8
XFILLER_5_515 VPWR VGND sg13g2_decap_8
XFILLER_0_231 VPWR VGND sg13g2_decap_8
Xoutput8 net8 uio_out[1] VPWR VGND sg13g2_buf_1
Xoutput21 net21 uo_out[6] VPWR VGND sg13g2_buf_1
Xoutput10 net10 uio_out[3] VPWR VGND sg13g2_buf_1
XFILLER_49_725 VPWR VGND sg13g2_decap_8
XFILLER_17_644 VPWR VGND sg13g2_decap_8
XFILLER_29_482 VPWR VGND sg13g2_decap_8
XFILLER_36_419 VPWR VGND sg13g2_decap_8
XFILLER_44_441 VPWR VGND sg13g2_decap_8
XFILLER_48_224 VPWR VGND sg13g2_decap_8
XFILLER_16_176 VPWR VGND sg13g2_decap_8
XFILLER_31_102 VPWR VGND sg13g2_decap_8
XFILLER_31_179 VPWR VGND sg13g2_decap_8
XFILLER_32_603 VPWR VGND sg13g2_decap_8
XFILLER_8_342 VPWR VGND sg13g2_decap_8
XFILLER_39_224 VPWR VGND sg13g2_decap_8
X_0503_ net83 VPWR _0288_ VGND net61 state\[10\] sg13g2_o21ai_1
XFILLER_23_647 VPWR VGND sg13g2_decap_8
XFILLER_35_452 VPWR VGND sg13g2_decap_8
XFILLER_48_791 VPWR VGND sg13g2_decap_8
XFILLER_22_146 VPWR VGND sg13g2_decap_8
XFILLER_2_529 VPWR VGND sg13g2_decap_8
XFILLER_45_238 VPWR VGND sg13g2_decap_8
Xclkbuf_5_23__f_clk clknet_5_23__leaf_clk clknet_4_11_0_clk VPWR VGND sg13g2_buf_16
XFILLER_13_157 VPWR VGND sg13g2_decap_8
XFILLER_14_636 VPWR VGND sg13g2_fill_1
XFILLER_14_647 VPWR VGND sg13g2_decap_8
XFILLER_26_43 VPWR VGND sg13g2_decap_8
XFILLER_26_463 VPWR VGND sg13g2_decap_8
XFILLER_41_455 VPWR VGND sg13g2_decap_8
XFILLER_42_42 VPWR VGND sg13g2_decap_8
XFILLER_21_190 VPWR VGND sg13g2_decap_8
XFILLER_5_389 VPWR VGND sg13g2_decap_8
XFILLER_5_312 VPWR VGND sg13g2_decap_8
XFILLER_3_25 VPWR VGND sg13g2_decap_8
XFILLER_49_522 VPWR VGND sg13g2_decap_8
XFILLER_17_441 VPWR VGND sg13g2_decap_8
XFILLER_32_400 VPWR VGND sg13g2_decap_8
XFILLER_36_216 VPWR VGND sg13g2_decap_8
XFILLER_49_599 VPWR VGND sg13g2_decap_8
XFILLER_20_617 VPWR VGND sg13g2_decap_8
XFILLER_32_477 VPWR VGND sg13g2_decap_8
X_0983_ net108 VGND VPWR _0143_ state\[15\] clknet_5_0__leaf_clk sg13g2_dfrbpq_1
Xfanout107 net108 net107 VPWR VGND sg13g2_buf_1
Xfanout118 net119 net118 VPWR VGND sg13g2_buf_1
XFILLER_27_238 VPWR VGND sg13g2_decap_8
XFILLER_23_444 VPWR VGND sg13g2_decap_8
XFILLER_12_34 VPWR VGND sg13g2_decap_8
XFILLER_2_326 VPWR VGND sg13g2_decap_8
XFILLER_26_260 VPWR VGND sg13g2_decap_8
XFILLER_37_97 VPWR VGND sg13g2_decap_8
XFILLER_46_525 VPWR VGND sg13g2_decap_8
XFILLER_14_433 VPWR VGND sg13g2_decap_8
XFILLER_41_252 VPWR VGND sg13g2_decap_8
XFILLER_42_764 VPWR VGND sg13g2_fill_1
XFILLER_42_786 VPWR VGND sg13g2_fill_1
XFILLER_45_7 VPWR VGND sg13g2_decap_8
XFILLER_5_186 VPWR VGND sg13g2_decap_8
XFILLER_1_392 VPWR VGND sg13g2_decap_8
XFILLER_37_536 VPWR VGND sg13g2_decap_8
XFILLER_49_396 VPWR VGND sg13g2_decap_8
XFILLER_20_414 VPWR VGND sg13g2_decap_8
XFILLER_32_274 VPWR VGND sg13g2_decap_8
X_0897_ VPWR _0248_ daisychain\[55\] VGND sg13g2_inv_1
X_0966_ net98 VGND VPWR _0126_ daisychain\[62\] clknet_5_11__leaf_clk sg13g2_dfrbpq_1
XFILLER_0_808 VPWR VGND sg13g2_decap_8
XFILLER_28_536 VPWR VGND sg13g2_decap_8
XFILLER_43_539 VPWR VGND sg13g2_decap_8
XFILLER_11_403 VPWR VGND sg13g2_decap_8
XFILLER_11_447 VPWR VGND sg13g2_decap_8
XFILLER_23_11 VPWR VGND sg13g2_decap_4
XFILLER_23_241 VPWR VGND sg13g2_decap_8
XFILLER_23_33 VPWR VGND sg13g2_fill_1
XFILLER_23_66 VPWR VGND sg13g2_decap_8
XFILLER_2_123 VPWR VGND sg13g2_decap_8
XFILLER_3_635 VPWR VGND sg13g2_fill_2
XFILLER_19_525 VPWR VGND sg13g2_decap_8
XFILLER_46_322 VPWR VGND sg13g2_decap_8
XFILLER_48_63 VPWR VGND sg13g2_decap_8
XFILLER_14_230 VPWR VGND sg13g2_decap_8
XFILLER_15_775 VPWR VGND sg13g2_decap_8
XFILLER_46_399 VPWR VGND sg13g2_decap_8
XFILLER_30_767 VPWR VGND sg13g2_decap_8
X_0820_ VPWR _0040_ state\[17\] VGND sg13g2_inv_1
X_0751_ _0352_ VPWR _0159_ VGND net86 _0056_ sg13g2_o21ai_1
XFILLER_9_46 VPWR VGND sg13g2_decap_8
X_0682_ _0118_ _0421_ _0422_ net47 _0247_ VPWR VGND sg13g2_a22oi_1
XFILLER_6_495 VPWR VGND sg13g2_decap_8
XFILLER_37_300 VPWR VGND sg13g2_decap_8
XFILLER_37_377 VPWR VGND sg13g2_decap_8
XFILLER_49_193 VPWR VGND sg13g2_decap_8
XFILLER_20_211 VPWR VGND sg13g2_decap_8
XFILLER_21_701 VPWR VGND sg13g2_fill_2
XFILLER_33_594 VPWR VGND sg13g2_decap_8
XFILLER_20_288 VPWR VGND sg13g2_decap_8
X_0949_ net113 VGND VPWR _0109_ daisychain\[45\] clknet_5_16__leaf_clk sg13g2_dfrbpq_1
XFILLER_28_333 VPWR VGND sg13g2_decap_8
XFILLER_47_119 VPWR VGND sg13g2_decap_8
XFILLER_48_609 VPWR VGND sg13g2_decap_8
XFILLER_18_99 VPWR VGND sg13g2_decap_8
XFILLER_24_550 VPWR VGND sg13g2_decap_8
XFILLER_34_54 VPWR VGND sg13g2_decap_8
XFILLER_43_336 VPWR VGND sg13g2_decap_8
XFILLER_11_200 VPWR VGND sg13g2_decap_8
XFILLER_11_277 VPWR VGND sg13g2_decap_8
XFILLER_7_259 VPWR VGND sg13g2_decap_8
XFILLER_1_0 VPWR VGND sg13g2_decap_8
XFILLER_3_410 VPWR VGND sg13g2_decap_8
XFILLER_3_487 VPWR VGND sg13g2_decap_8
XFILLER_15_8 VPWR VGND sg13g2_fill_1
XFILLER_19_322 VPWR VGND sg13g2_decap_8
XFILLER_19_399 VPWR VGND sg13g2_decap_8
XFILLER_47_686 VPWR VGND sg13g2_decap_8
XFILLER_15_594 VPWR VGND sg13g2_decap_8
XFILLER_30_564 VPWR VGND sg13g2_decap_8
XFILLER_34_369 VPWR VGND sg13g2_decap_8
XFILLER_46_196 VPWR VGND sg13g2_decap_8
X_0803_ VPWR _0201_ daisychain\[8\] VGND sg13g2_inv_1
X_0734_ _0301_ VPWR _0142_ VGND net84 _0037_ sg13g2_o21ai_1
X_0665_ VGND VPWR net28 daisychain\[49\] _0410_ net51 sg13g2_a21oi_1
XFILLER_6_292 VPWR VGND sg13g2_decap_8
X_0596_ _0226_ net67 _0357_ _0358_ VPWR VGND sg13g2_a21o_1
XFILLER_1_91 VPWR VGND sg13g2_decap_8
XFILLER_25_358 VPWR VGND sg13g2_decap_8
XFILLER_37_174 VPWR VGND sg13g2_decap_8
XFILLER_38_653 VPWR VGND sg13g2_decap_8
Xclkbuf_5_4__f_clk clknet_5_4__leaf_clk clknet_4_2_0_clk VPWR VGND sg13g2_buf_16
XFILLER_21_575 VPWR VGND sg13g2_decap_8
XFILLER_33_391 VPWR VGND sg13g2_decap_8
XFILLER_0_413 VPWR VGND sg13g2_decap_8
XFILLER_20_23 VPWR VGND sg13g2_decap_4
XFILLER_20_78 VPWR VGND sg13g2_decap_8
XFILLER_4_207 VPWR VGND sg13g2_decap_8
XFILLER_17_804 VPWR VGND sg13g2_decap_8
XFILLER_28_130 VPWR VGND sg13g2_decap_8
XFILLER_29_76 VPWR VGND sg13g2_decap_8
XFILLER_44_623 VPWR VGND sg13g2_decap_8
XFILLER_48_406 VPWR VGND sg13g2_decap_8
XFILLER_12_564 VPWR VGND sg13g2_decap_8
XFILLER_16_358 VPWR VGND sg13g2_decap_8
XFILLER_32_807 VPWR VGND sg13g2_decap_4
XFILLER_43_133 VPWR VGND sg13g2_decap_8
XFILLER_45_42 VPWR VGND sg13g2_decap_8
XFILLER_8_524 VPWR VGND sg13g2_decap_8
XFILLER_6_47 VPWR VGND sg13g2_decap_8
XFILLER_6_25 VPWR VGND sg13g2_decap_4
XFILLER_39_406 VPWR VGND sg13g2_decap_8
XFILLER_3_284 VPWR VGND sg13g2_decap_8
XFILLER_19_196 VPWR VGND sg13g2_decap_8
XFILLER_34_166 VPWR VGND sg13g2_decap_8
XFILLER_47_483 VPWR VGND sg13g2_decap_8
X_1002_ net112 VGND VPWR _0162_ state\[34\] clknet_5_23__leaf_clk sg13g2_dfrbpq_1
XFILLER_15_391 VPWR VGND sg13g2_decap_8
XFILLER_22_328 VPWR VGND sg13g2_decap_8
XFILLER_30_361 VPWR VGND sg13g2_decap_8
X_0717_ _0256_ net55 _0448_ _0449_ VPWR VGND sg13g2_a21o_1
X_0648_ _0239_ net70 _0396_ _0397_ VPWR VGND sg13g2_a21o_1
XFILLER_38_461 VPWR VGND sg13g2_decap_8
X_0579_ net82 VPWR _0345_ VGND net60 state\[29\] sg13g2_o21ai_1
XFILLER_13_339 VPWR VGND sg13g2_decap_8
XFILLER_15_34 VPWR VGND sg13g2_decap_8
XFILLER_25_155 VPWR VGND sg13g2_decap_8
XFILLER_40_147 VPWR VGND sg13g2_decap_8
XFILLER_41_637 VPWR VGND sg13g2_decap_8
XFILLER_41_648 VPWR VGND sg13g2_fill_1
XFILLER_21_372 VPWR VGND sg13g2_decap_8
XFILLER_31_11 VPWR VGND sg13g2_decap_8
XFILLER_31_88 VPWR VGND sg13g2_decap_8
Xclkbuf_4_10_0_clk clknet_0_clk clknet_4_10_0_clk VPWR VGND sg13g2_buf_8
XFILLER_0_210 VPWR VGND sg13g2_decap_8
XFILLER_0_287 VPWR VGND sg13g2_decap_8
XFILLER_48_203 VPWR VGND sg13g2_decap_8
Xoutput9 net9 uio_out[2] VPWR VGND sg13g2_buf_1
Xoutput22 net22 uo_out[7] VPWR VGND sg13g2_buf_1
Xoutput11 net11 uio_out[4] VPWR VGND sg13g2_buf_1
XFILLER_49_704 VPWR VGND sg13g2_decap_8
XFILLER_16_155 VPWR VGND sg13g2_decap_8
XFILLER_17_623 VPWR VGND sg13g2_decap_8
XFILLER_29_461 VPWR VGND sg13g2_decap_8
XFILLER_44_420 VPWR VGND sg13g2_decap_8
XFILLER_31_158 VPWR VGND sg13g2_decap_8
XFILLER_44_497 VPWR VGND sg13g2_decap_8
XFILLER_8_321 VPWR VGND sg13g2_decap_8
X_0502_ _0073_ _0286_ _0287_ net39 _0202_ VPWR VGND sg13g2_a22oi_1
XFILLER_8_398 VPWR VGND sg13g2_decap_8
XFILLER_39_203 VPWR VGND sg13g2_decap_8
XFILLER_48_770 VPWR VGND sg13g2_decap_8
XFILLER_22_125 VPWR VGND sg13g2_decap_8
XFILLER_23_626 VPWR VGND sg13g2_decap_8
XFILLER_35_431 VPWR VGND sg13g2_decap_8
XFILLER_47_280 VPWR VGND sg13g2_decap_8
XFILLER_2_508 VPWR VGND sg13g2_decap_8
XFILLER_26_11 VPWR VGND sg13g2_decap_4
XFILLER_26_22 VPWR VGND sg13g2_decap_8
XFILLER_26_442 VPWR VGND sg13g2_decap_8
XFILLER_45_217 VPWR VGND sg13g2_decap_8
XFILLER_46_707 VPWR VGND sg13g2_decap_8
XFILLER_13_136 VPWR VGND sg13g2_decap_8
XFILLER_22_692 VPWR VGND sg13g2_decap_8
XFILLER_26_99 VPWR VGND sg13g2_decap_8
XFILLER_41_434 VPWR VGND sg13g2_decap_8
XFILLER_42_21 VPWR VGND sg13g2_decap_8
XFILLER_42_98 VPWR VGND sg13g2_decap_8
XFILLER_5_368 VPWR VGND sg13g2_decap_8
XFILLER_49_578 VPWR VGND sg13g2_decap_8
XFILLER_49_501 VPWR VGND sg13g2_decap_8
XFILLER_17_420 VPWR VGND sg13g2_decap_8
XFILLER_17_497 VPWR VGND sg13g2_decap_8
XFILLER_32_456 VPWR VGND sg13g2_decap_8
XFILLER_44_294 VPWR VGND sg13g2_decap_8
XFILLER_13_670 VPWR VGND sg13g2_fill_1
XFILLER_13_681 VPWR VGND sg13g2_decap_4
X_0982_ net108 VGND VPWR _0142_ state\[14\] clknet_5_0__leaf_clk sg13g2_dfrbpq_1
XFILLER_8_195 VPWR VGND sg13g2_decap_8
Xfanout108 net118 net108 VPWR VGND sg13g2_buf_1
Xfanout119 net1 net119 VPWR VGND sg13g2_buf_1
XFILLER_27_217 VPWR VGND sg13g2_decap_8
XFILLER_28_718 VPWR VGND sg13g2_fill_1
XFILLER_10_139 VPWR VGND sg13g2_decap_8
XFILLER_23_423 VPWR VGND sg13g2_decap_8
XFILLER_12_13 VPWR VGND sg13g2_decap_8
XFILLER_2_305 VPWR VGND sg13g2_decap_8
XFILLER_46_504 VPWR VGND sg13g2_decap_8
XFILLER_14_412 VPWR VGND sg13g2_decap_8
XFILLER_18_239 VPWR VGND sg13g2_decap_8
XFILLER_27_773 VPWR VGND sg13g2_decap_8
XFILLER_27_784 VPWR VGND sg13g2_fill_1
XFILLER_33_209 VPWR VGND sg13g2_decap_8
XFILLER_37_76 VPWR VGND sg13g2_decap_8
XFILLER_41_231 VPWR VGND sg13g2_decap_8
XFILLER_14_489 VPWR VGND sg13g2_decap_8
XFILLER_1_371 VPWR VGND sg13g2_decap_8
XFILLER_38_7 VPWR VGND sg13g2_decap_8
XFILLER_6_688 VPWR VGND sg13g2_decap_8
XFILLER_5_165 VPWR VGND sg13g2_decap_8
XFILLER_37_504 VPWR VGND sg13g2_decap_8
XFILLER_49_375 VPWR VGND sg13g2_decap_8
XFILLER_17_294 VPWR VGND sg13g2_decap_8
XFILLER_32_253 VPWR VGND sg13g2_decap_8
XFILLER_45_581 VPWR VGND sg13g2_decap_8
X_0896_ VPWR _0015_ state\[55\] VGND sg13g2_inv_1
X_0965_ net98 VGND VPWR _0125_ daisychain\[61\] clknet_5_11__leaf_clk sg13g2_dfrbpq_1
XFILLER_28_515 VPWR VGND sg13g2_decap_8
XFILLER_15_209 VPWR VGND sg13g2_decap_8
XFILLER_23_220 VPWR VGND sg13g2_decap_8
XFILLER_43_518 VPWR VGND sg13g2_decap_8
XFILLER_11_426 VPWR VGND sg13g2_fill_1
XFILLER_23_297 VPWR VGND sg13g2_decap_8
XFILLER_2_102 VPWR VGND sg13g2_decap_8
XFILLER_2_179 VPWR VGND sg13g2_decap_8
XFILLER_3_4 VPWR VGND sg13g2_decap_8
XFILLER_0_49 VPWR VGND sg13g2_decap_8
XFILLER_19_504 VPWR VGND sg13g2_decap_8
XFILLER_46_301 VPWR VGND sg13g2_decap_8
XFILLER_48_42 VPWR VGND sg13g2_decap_8
XFILLER_14_286 VPWR VGND sg13g2_decap_8
XFILLER_15_798 VPWR VGND sg13g2_fill_1
XFILLER_27_581 VPWR VGND sg13g2_decap_8
XFILLER_30_702 VPWR VGND sg13g2_fill_1
XFILLER_42_595 VPWR VGND sg13g2_decap_8
XFILLER_46_378 VPWR VGND sg13g2_decap_8
XFILLER_9_25 VPWR VGND sg13g2_decap_8
Xfanout90 net96 net90 VPWR VGND sg13g2_buf_1
X_0750_ _0349_ VPWR _0158_ VGND net82 _0055_ sg13g2_o21ai_1
X_0681_ VGND VPWR net29 daisychain\[53\] _0422_ net45 sg13g2_a21oi_1
XFILLER_6_474 VPWR VGND sg13g2_decap_8
XFILLER_37_356 VPWR VGND sg13g2_decap_8
XFILLER_49_172 VPWR VGND sg13g2_decap_8
XFILLER_20_267 VPWR VGND sg13g2_decap_8
XFILLER_33_573 VPWR VGND sg13g2_decap_8
X_0948_ net113 VGND VPWR _0108_ daisychain\[44\] clknet_5_20__leaf_clk sg13g2_dfrbpq_1
XFILLER_0_606 VPWR VGND sg13g2_fill_2
X_0879_ VPWR _0239_ daisychain\[46\] VGND sg13g2_inv_1
XFILLER_28_312 VPWR VGND sg13g2_decap_8
XFILLER_18_78 VPWR VGND sg13g2_decap_8
XFILLER_28_389 VPWR VGND sg13g2_decap_8
XFILLER_34_33 VPWR VGND sg13g2_decap_8
XFILLER_43_315 VPWR VGND sg13g2_decap_8
XFILLER_11_256 VPWR VGND sg13g2_decap_8
XFILLER_20_790 VPWR VGND sg13g2_fill_1
XFILLER_7_238 VPWR VGND sg13g2_decap_8
XFILLER_3_466 VPWR VGND sg13g2_decap_8
XFILLER_19_301 VPWR VGND sg13g2_decap_8
XFILLER_19_378 VPWR VGND sg13g2_decap_8
XFILLER_34_348 VPWR VGND sg13g2_decap_8
XFILLER_46_175 VPWR VGND sg13g2_decap_8
XFILLER_47_665 VPWR VGND sg13g2_decap_8
XFILLER_15_573 VPWR VGND sg13g2_decap_8
XFILLER_30_543 VPWR VGND sg13g2_decap_8
XFILLER_42_392 VPWR VGND sg13g2_decap_8
X_0802_ VPWR _0062_ state\[8\] VGND sg13g2_inv_1
X_0733_ _0298_ VPWR _0141_ VGND net83 _0036_ sg13g2_o21ai_1
X_0664_ _0243_ net73 _0408_ _0409_ VPWR VGND sg13g2_a21o_1
XFILLER_6_271 VPWR VGND sg13g2_decap_8
XFILLER_27_0 VPWR VGND sg13g2_decap_8
X_0595_ net88 VPWR _0357_ VGND net67 state\[33\] sg13g2_o21ai_1
XFILLER_1_70 VPWR VGND sg13g2_decap_8
XFILLER_25_337 VPWR VGND sg13g2_decap_8
XFILLER_33_370 VPWR VGND sg13g2_decap_8
XFILLER_37_153 VPWR VGND sg13g2_decap_8
XFILLER_38_676 VPWR VGND sg13g2_fill_1
XFILLER_40_329 VPWR VGND sg13g2_decap_8
XFILLER_20_13 VPWR VGND sg13g2_decap_8
XFILLER_21_554 VPWR VGND sg13g2_decap_8
XFILLER_0_469 VPWR VGND sg13g2_decap_8
XFILLER_16_337 VPWR VGND sg13g2_decap_8
XFILLER_28_186 VPWR VGND sg13g2_decap_8
XFILLER_29_55 VPWR VGND sg13g2_decap_8
XFILLER_29_643 VPWR VGND sg13g2_decap_8
XFILLER_29_687 VPWR VGND sg13g2_fill_2
XFILLER_43_112 VPWR VGND sg13g2_decap_8
XFILLER_44_602 VPWR VGND sg13g2_decap_8
XFILLER_45_21 VPWR VGND sg13g2_decap_8