* NGSPICE file created from heichips25_pudding.ext - technology: ihp-sg13g2

* Black-box entry subcircuit for sg13g2_decap_8 abstract view
.subckt sg13g2_decap_8 VDD VSS
.ends

* Black-box entry subcircuit for sg13g2_fill_1 abstract view
.subckt sg13g2_fill_1 VDD VSS
.ends

* Black-box entry subcircuit for sg13g2_dfrbpq_1 abstract view
.subckt sg13g2_dfrbpq_1 RESET_B VSS VDD D Q CLK
.ends

* Black-box entry subcircuit for sg13g2_buf_1 abstract view
.subckt sg13g2_buf_1 A X VDD VSS
.ends

* Black-box entry subcircuit for sg13g2_fill_2 abstract view
.subckt sg13g2_fill_2 VDD VSS
.ends

* Black-box entry subcircuit for sg13g2_o21ai_1 abstract view
.subckt sg13g2_o21ai_1 B1 VDD Y VSS A1 A2
.ends

* Black-box entry subcircuit for sg13g2_buf_8 abstract view
.subckt sg13g2_buf_8 A X VDD VSS
.ends

* Black-box entry subcircuit for sg13g2_inv_1 abstract view
.subckt sg13g2_inv_1 VDD Y A VSS
.ends

* Black-box entry subcircuit for sg13g2_decap_4 abstract view
.subckt sg13g2_decap_4 VDD VSS
.ends

* Black-box entry subcircuit for sg13g2_a21o_1 abstract view
.subckt sg13g2_a21o_1 A2 A1 B1 X VDD VSS
.ends

* Black-box entry subcircuit for sg13g2_a22oi_1 abstract view
.subckt sg13g2_a22oi_1 Y B1 B2 A2 A1 VDD VSS
.ends

* Black-box entry subcircuit for sg13g2_a21oi_1 abstract view
.subckt sg13g2_a21oi_1 VSS VDD A1 A2 Y B1
.ends

* Black-box entry subcircuit for sg13g2_buf_16 abstract view
.subckt sg13g2_buf_16 X A VDD VSS
.ends

* Black-box entry subcircuit for sg13g2_or2_1 abstract view
.subckt sg13g2_or2_1 VSS VDD X B A
.ends

* Black-box entry subcircuit for sg13g2_nor2b_1 abstract view
.subckt sg13g2_nor2b_1 A B_N Y VDD VSS
.ends

* Black-box entry subcircuit for sg13g2_nand2_1 abstract view
.subckt sg13g2_nand2_1 Y A B VDD VSS
.ends

* Black-box entry subcircuit for sg13g2_nor2_1 abstract view
.subckt sg13g2_nor2_1 A B Y VDD VSS
.ends

* Black-box entry subcircuit for sg13g2_tiehi abstract view
.subckt sg13g2_tiehi VDD VSS L_HI
.ends

* Black-box entry subcircuit for analog_wires abstract view
.subckt analog_wires VcascP[0] VcascP[1] Iout[0] VDDA[0] VDDA[1] VbiasP[1] VbiasP[0]
+ VcascP[2] VcascP[3] Iout[1] VDDA[2] VDDA[3] VbiasP[3] VbiasP[2] i_in i_out
.ends

* Black-box entry subcircuit for dac32module abstract view
.subckt dac32module EN[1] ENB[1] EN[2] ENB[2] ON[16] ONB[16] ON[17] ONB[17] ON[18]
+ ONB[18] ON[19] ONB[19] ON[20] ONB[20] ON[21] ONB[21] ON[22] ONB[22] ON[23] ONB[23]
+ ON[24] ONB[24] ON[25] ONB[25] ON[26] ONB[26] ON[27] ONB[27] ON[28] ONB[28] ON[29]
+ ONB[29] ON[30] ONB[30] ON[31] ONB[31] EN[3] ENB[3] ON[0] ONB[0] ON[1] ONB[1] ON[2]
+ ONB[2] ON[3] ONB[3] ON[4] ONB[4] ON[5] ONB[5] ON[6] EN[0] ENB[0] ONB[6] ON[7] ONB[7]
+ ON[8] ONB[8] ON[9] ONB[9] ON[10] ONB[10] ON[11] ONB[11] ON[12] ONB[12] ON[13] ONB[13]
+ ON[14] ONB[14] ON[15] ONB[15] Iout VbiasP[0] VbiasP[1] VcascP[1] VcascP[0] VDD VSS
.ends

* Black-box entry subcircuit for sg13g2_antennanp abstract view
.subckt sg13g2_antennanp VDD VSS A
.ends

.subckt heichips25_pudding VGND VPWR clk ena i_in i_out rst_n ui_in[0] ui_in[1] ui_in[2]
+ ui_in[3] ui_in[4] ui_in[5] ui_in[6] ui_in[7] uio_in[0] uio_in[1] uio_in[2] uio_in[3]
+ uio_in[4] uio_in[5] uio_in[6] uio_in[7] uio_oe[0] uio_oe[1] uio_oe[2] uio_oe[3]
+ uio_oe[4] uio_oe[5] uio_oe[6] uio_oe[7] uio_out[0] uio_out[1] uio_out[2] uio_out[3]
+ uio_out[4] uio_out[5] uio_out[6] uio_out[7] uo_out[0] uo_out[1] uo_out[2] uo_out[3]
+ uo_out[4] uo_out[5] uo_out[6] uo_out[7]
XFILLER_39_222 VPWR VGND sg13g2_decap_8
XFILLER_39_299 VPWR VGND sg13g2_decap_8
XFILLER_10_328 VPWR VGND sg13g2_decap_8
XFILLER_22_133 VPWR VGND sg13g2_decap_8
XFILLER_23_645 VPWR VGND sg13g2_decap_8
XFILLER_35_483 VPWR VGND sg13g2_decap_8
XFILLER_7_7 VPWR VGND sg13g2_decap_8
XFILLER_18_406 VPWR VGND sg13g2_decap_8
XFILLER_13_100 VPWR VGND sg13g2_decap_8
XFILLER_26_483 VPWR VGND sg13g2_decap_8
XFILLER_26_63 VPWR VGND sg13g2_decap_8
XFILLER_45_203 VPWR VGND sg13g2_decap_8
XFILLER_13_177 VPWR VGND sg13g2_decap_8
XFILLER_41_475 VPWR VGND sg13g2_decap_8
XFILLER_9_137 VPWR VGND sg13g2_decap_8
XFILLER_1_560 VPWR VGND sg13g2_decap_8
XFILLER_1_571 VPWR VGND sg13g2_fill_1
XFILLER_5_354 VPWR VGND sg13g2_decap_8
XFILLER_36_203 VPWR VGND sg13g2_decap_8
XFILLER_3_67 VPWR VGND sg13g2_decap_8
XFILLER_49_564 VPWR VGND sg13g2_decap_8
XFILLER_20_626 VPWR VGND sg13g2_decap_8
XFILLER_32_431 VPWR VGND sg13g2_decap_8
X_0985_ net106 VGND VPWR _0145_ state\[17\] clknet_5_13__leaf_clk sg13g2_dfrbpq_1
XFILLER_9_693 VPWR VGND sg13g2_decap_8
XFILLER_8_181 VPWR VGND sg13g2_decap_8
XFILLER_28_704 VPWR VGND sg13g2_decap_8
Xfanout105 net108 net105 VPWR VGND sg13g2_buf_1
Xfanout116 net117 net116 VPWR VGND sg13g2_buf_1
XFILLER_27_258 VPWR VGND sg13g2_decap_8
XFILLER_35_280 VPWR VGND sg13g2_decap_8
XFILLER_42_217 VPWR VGND sg13g2_decap_8
XFILLER_10_125 VPWR VGND sg13g2_decap_8
XFILLER_23_442 VPWR VGND sg13g2_decap_8
XFILLER_7_608 VPWR VGND sg13g2_fill_1
XFILLER_12_76 VPWR VGND sg13g2_decap_8
XFILLER_2_368 VPWR VGND sg13g2_decap_8
XFILLER_5_4 VPWR VGND sg13g2_decap_8
XFILLER_18_203 VPWR VGND sg13g2_decap_8
XFILLER_37_84 VPWR VGND sg13g2_decap_8
XFILLER_46_567 VPWR VGND sg13g2_decap_8
XFILLER_14_464 VPWR VGND sg13g2_decap_8
XFILLER_26_280 VPWR VGND sg13g2_decap_8
XFILLER_27_781 VPWR VGND sg13g2_fill_2
XFILLER_33_228 VPWR VGND sg13g2_decap_8
XFILLER_41_272 VPWR VGND sg13g2_decap_8
X_0770_ _0409_ VPWR _0178_ VGND net94 _0009_ sg13g2_o21ai_1
XFILLER_5_151 VPWR VGND sg13g2_decap_8
XFILLER_24_217 VPWR VGND sg13g2_decap_8
XFILLER_37_567 VPWR VGND sg13g2_decap_8
XFILLER_49_361 VPWR VGND sg13g2_decap_8
XFILLER_20_423 VPWR VGND sg13g2_decap_8
X_0968_ net102 VGND VPWR _0128_ state\[0\] clknet_5_1__leaf_clk sg13g2_dfrbpq_1
Xclkbuf_4_12_0_clk clknet_0_clk clknet_4_12_0_clk VPWR VGND sg13g2_buf_8
X_0899_ VPWR _0249_ daisychain\[56\] VGND sg13g2_inv_1
XFILLER_16_707 VPWR VGND sg13g2_fill_2
XFILLER_28_501 VPWR VGND sg13g2_decap_8
XFILLER_28_578 VPWR VGND sg13g2_decap_8
XFILLER_43_504 VPWR VGND sg13g2_decap_8
XFILLER_11_445 VPWR VGND sg13g2_decap_8
XFILLER_23_64 VPWR VGND sg13g2_decap_8
XFILLER_7_427 VPWR VGND sg13g2_decap_8
XFILLER_2_165 VPWR VGND sg13g2_decap_8
XFILLER_0_35 VPWR VGND sg13g2_decap_8
XFILLER_19_501 VPWR VGND sg13g2_decap_8
XFILLER_19_578 VPWR VGND sg13g2_decap_8
XFILLER_34_504 VPWR VGND sg13g2_decap_8
XFILLER_46_364 VPWR VGND sg13g2_decap_8
XFILLER_14_261 VPWR VGND sg13g2_decap_8
XFILLER_42_581 VPWR VGND sg13g2_decap_4
X_0822_ VPWR _0041_ state\[18\] VGND sg13g2_inv_1
XFILLER_9_88 VPWR VGND sg13g2_decap_8
XFILLER_9_11 VPWR VGND sg13g2_decap_8
X_0753_ _0358_ VPWR _0161_ VGND net90 _0011_ sg13g2_o21ai_1
X_0684_ _0248_ net68 _0423_ _0424_ VPWR VGND sg13g2_a21o_1
XFILLER_12_209 VPWR VGND sg13g2_decap_8
XFILLER_25_537 VPWR VGND sg13g2_decap_8
XFILLER_37_364 VPWR VGND sg13g2_decap_8
XFILLER_20_220 VPWR VGND sg13g2_decap_8
XFILLER_20_297 VPWR VGND sg13g2_decap_8
XFILLER_21_787 VPWR VGND sg13g2_fill_2
XFILLER_33_592 VPWR VGND sg13g2_decap_8
XFILLER_0_603 VPWR VGND sg13g2_decap_8
XFILLER_0_636 VPWR VGND sg13g2_fill_1
XFILLER_0_658 VPWR VGND sg13g2_decap_8
XFILLER_16_537 VPWR VGND sg13g2_decap_8
XFILLER_18_42 VPWR VGND sg13g2_decap_8
XFILLER_28_375 VPWR VGND sg13g2_decap_8
XFILLER_29_810 VPWR VGND sg13g2_decap_8
XFILLER_29_821 VPWR VGND sg13g2_fill_2
XFILLER_43_334 VPWR VGND sg13g2_decap_8
XFILLER_11_242 VPWR VGND sg13g2_decap_8
XFILLER_24_581 VPWR VGND sg13g2_decap_8
XFILLER_34_63 VPWR VGND sg13g2_decap_8
XFILLER_3_452 VPWR VGND sg13g2_decap_8
XFILLER_7_224 VPWR VGND sg13g2_decap_8
XFILLER_19_375 VPWR VGND sg13g2_decap_8
XFILLER_22_518 VPWR VGND sg13g2_decap_8
XFILLER_34_301 VPWR VGND sg13g2_decap_8
XFILLER_34_378 VPWR VGND sg13g2_decap_8
XFILLER_46_161 VPWR VGND sg13g2_decap_8
X_1021_ net114 VGND VPWR _0181_ state\[53\] clknet_5_20__leaf_clk sg13g2_dfrbpq_1
XFILLER_47_684 VPWR VGND sg13g2_fill_2
X_0805_ VPWR _0202_ daisychain\[9\] VGND sg13g2_inv_1
X_0736_ _0307_ VPWR _0144_ VGND net84 _0039_ sg13g2_o21ai_1
X_0667_ net88 VPWR _0411_ VGND net67 state\[51\] sg13g2_o21ai_1
X_0598_ _0097_ _0358_ _0359_ net49 _0226_ VPWR VGND sg13g2_a22oi_1
XFILLER_29_139 VPWR VGND sg13g2_decap_8
XFILLER_37_161 VPWR VGND sg13g2_decap_8
XFILLER_21_540 VPWR VGND sg13g2_decap_8
XFILLER_25_345 VPWR VGND sg13g2_decap_8
XFILLER_40_337 VPWR VGND sg13g2_decap_8
XFILLER_4_249 VPWR VGND sg13g2_decap_8
XFILLER_0_455 VPWR VGND sg13g2_decap_8
XFILLER_20_87 VPWR VGND sg13g2_decap_8
XFILLER_29_41 VPWR VGND sg13g2_decap_8
XFILLER_48_448 VPWR VGND sg13g2_decap_8
XFILLER_16_312 VPWR VGND sg13g2_decap_8
XFILLER_16_389 VPWR VGND sg13g2_decap_8
XFILLER_28_172 VPWR VGND sg13g2_decap_8
XFILLER_44_621 VPWR VGND sg13g2_fill_2
XFILLER_44_698 VPWR VGND sg13g2_decap_8
XFILLER_45_84 VPWR VGND sg13g2_decap_8
XFILLER_12_573 VPWR VGND sg13g2_decap_8
XFILLER_31_359 VPWR VGND sg13g2_decap_8
XFILLER_8_566 VPWR VGND sg13g2_decap_8
X_0521_ VGND VPWR net26 daisychain\[13\] _0302_ net40 sg13g2_a21oi_1
X_0452_ VPWR _0019_ state\[59\] VGND sg13g2_inv_1
XFILLER_6_78 VPWR VGND sg13g2_decap_8
XFILLER_19_172 VPWR VGND sg13g2_decap_8
XFILLER_20_4 VPWR VGND sg13g2_decap_8
XFILLER_39_426 VPWR VGND sg13g2_decap_8
XFILLER_22_315 VPWR VGND sg13g2_decap_8
XFILLER_34_175 VPWR VGND sg13g2_decap_8
X_1004_ net110 VGND VPWR _0164_ state\[36\] clknet_5_25__leaf_clk sg13g2_dfrbpq_1
X_0719_ _0127_ _0449_ _0450_ net34 _0256_ VPWR VGND sg13g2_a22oi_1
XFILLER_25_142 VPWR VGND sg13g2_decap_8
XFILLER_26_665 VPWR VGND sg13g2_decap_8
XFILLER_13_359 VPWR VGND sg13g2_decap_8
XFILLER_15_65 VPWR VGND sg13g2_decap_8
XFILLER_40_134 VPWR VGND sg13g2_decap_8
XFILLER_41_657 VPWR VGND sg13g2_fill_1
XFILLER_9_319 VPWR VGND sg13g2_decap_8
XFILLER_31_86 VPWR VGND sg13g2_decap_8
Xoutput7 net7 uio_out[0] VPWR VGND sg13g2_buf_1
Xoutput20 net20 uo_out[5] VPWR VGND sg13g2_buf_1
XFILLER_5_547 VPWR VGND sg13g2_fill_2
XFILLER_5_536 VPWR VGND sg13g2_decap_8
XFILLER_0_252 VPWR VGND sg13g2_decap_8
XFILLER_17_610 VPWR VGND sg13g2_decap_8
XFILLER_48_245 VPWR VGND sg13g2_decap_8
XFILLER_16_186 VPWR VGND sg13g2_decap_8
XFILLER_20_819 VPWR VGND sg13g2_decap_4
XFILLER_31_156 VPWR VGND sg13g2_decap_8
XFILLER_32_613 VPWR VGND sg13g2_decap_8
XFILLER_12_370 VPWR VGND sg13g2_decap_8
Xclkbuf_5_17__f_clk clknet_5_17__leaf_clk clknet_4_8_0_clk VPWR VGND sg13g2_buf_16
XFILLER_8_363 VPWR VGND sg13g2_decap_8
XFILLER_39_201 VPWR VGND sg13g2_decap_8
X_0504_ _0203_ net61 _0288_ _0289_ VPWR VGND sg13g2_a21o_1
XFILLER_23_624 VPWR VGND sg13g2_decap_8
XFILLER_35_462 VPWR VGND sg13g2_decap_8
XFILLER_39_278 VPWR VGND sg13g2_decap_8
XFILLER_10_307 VPWR VGND sg13g2_decap_8
XFILLER_22_112 VPWR VGND sg13g2_decap_8
XFILLER_22_189 VPWR VGND sg13g2_decap_8
XFILLER_13_156 VPWR VGND sg13g2_decap_8
XFILLER_14_646 VPWR VGND sg13g2_fill_1
XFILLER_14_668 VPWR VGND sg13g2_decap_8
XFILLER_26_42 VPWR VGND sg13g2_decap_8
XFILLER_26_462 VPWR VGND sg13g2_decap_8
XFILLER_41_454 VPWR VGND sg13g2_decap_8
XFILLER_45_259 VPWR VGND sg13g2_decap_8
XFILLER_9_116 VPWR VGND sg13g2_decap_8
XFILLER_5_333 VPWR VGND sg13g2_decap_8
XFILLER_3_46 VPWR VGND sg13g2_decap_8
XFILLER_36_259 VPWR VGND sg13g2_decap_8
XFILLER_49_543 VPWR VGND sg13g2_decap_8
XFILLER_17_484 VPWR VGND sg13g2_decap_8
XFILLER_20_605 VPWR VGND sg13g2_decap_8
XFILLER_32_410 VPWR VGND sg13g2_decap_8
XFILLER_32_487 VPWR VGND sg13g2_decap_8
X_0984_ net106 VGND VPWR _0144_ state\[16\] clknet_5_13__leaf_clk sg13g2_dfrbpq_1
XFILLER_8_160 VPWR VGND sg13g2_decap_8
Xfanout106 net107 net106 VPWR VGND sg13g2_buf_1
Xfanout117 net1 net117 VPWR VGND sg13g2_buf_1
XFILLER_23_421 VPWR VGND sg13g2_decap_8
XFILLER_27_237 VPWR VGND sg13g2_decap_8
XFILLER_10_104 VPWR VGND sg13g2_decap_8
XFILLER_12_55 VPWR VGND sg13g2_decap_8
XFILLER_23_498 VPWR VGND sg13g2_decap_8
XFILLER_2_347 VPWR VGND sg13g2_decap_8
XFILLER_18_259 VPWR VGND sg13g2_decap_8
XFILLER_19_727 VPWR VGND sg13g2_fill_1
XFILLER_33_207 VPWR VGND sg13g2_decap_8
XFILLER_37_63 VPWR VGND sg13g2_decap_8
XFILLER_46_546 VPWR VGND sg13g2_decap_8
XFILLER_14_443 VPWR VGND sg13g2_decap_8
XFILLER_41_251 VPWR VGND sg13g2_decap_8
XFILLER_10_660 VPWR VGND sg13g2_fill_1
XFILLER_5_130 VPWR VGND sg13g2_decap_8
XFILLER_49_340 VPWR VGND sg13g2_decap_8
XFILLER_17_281 VPWR VGND sg13g2_decap_8
XFILLER_18_782 VPWR VGND sg13g2_fill_1
XFILLER_18_793 VPWR VGND sg13g2_fill_2
XFILLER_33_730 VPWR VGND sg13g2_decap_4
XFILLER_37_546 VPWR VGND sg13g2_decap_8
XFILLER_20_402 VPWR VGND sg13g2_decap_8
XFILLER_20_479 VPWR VGND sg13g2_decap_8
XFILLER_32_284 VPWR VGND sg13g2_decap_8
X_0967_ net97 VGND VPWR _0127_ daisychain\[63\] clknet_5_10__leaf_clk sg13g2_dfrbpq_1
XFILLER_9_480 VPWR VGND sg13g2_decap_8
X_0898_ VPWR _0016_ state\[56\] VGND sg13g2_inv_1
XFILLER_28_557 VPWR VGND sg13g2_decap_8
XFILLER_11_424 VPWR VGND sg13g2_decap_8
XFILLER_23_295 VPWR VGND sg13g2_decap_8
XFILLER_23_43 VPWR VGND sg13g2_decap_8
XFILLER_24_785 VPWR VGND sg13g2_fill_1
XFILLER_7_406 VPWR VGND sg13g2_decap_8
XFILLER_2_144 VPWR VGND sg13g2_decap_8
XFILLER_48_84 VPWR VGND sg13g2_decap_8
XFILLER_47_822 VPWR VGND sg13g2_fill_1
XFILLER_0_14 VPWR VGND sg13g2_decap_8
XFILLER_14_240 VPWR VGND sg13g2_decap_8
XFILLER_15_752 VPWR VGND sg13g2_decap_8
XFILLER_19_557 VPWR VGND sg13g2_decap_8
XFILLER_46_343 VPWR VGND sg13g2_decap_8
XFILLER_42_560 VPWR VGND sg13g2_decap_8
X_0821_ VPWR _0210_ daisychain\[17\] VGND sg13g2_inv_1
X_0752_ _0355_ VPWR _0160_ VGND net92 _0000_ sg13g2_o21ai_1
XFILLER_9_67 VPWR VGND sg13g2_decap_8
X_0683_ net89 VPWR _0423_ VGND net68 state\[55\] sg13g2_o21ai_1
XFILLER_25_516 VPWR VGND sg13g2_decap_8
XFILLER_37_343 VPWR VGND sg13g2_decap_8
XFILLER_33_571 VPWR VGND sg13g2_decap_8
XFILLER_40_519 VPWR VGND sg13g2_decap_8
XFILLER_20_276 VPWR VGND sg13g2_decap_8
XFILLER_0_615 VPWR VGND sg13g2_decap_4
XFILLER_16_516 VPWR VGND sg13g2_decap_8
XFILLER_18_98 VPWR VGND sg13g2_decap_8
XFILLER_28_354 VPWR VGND sg13g2_decap_8
XFILLER_43_313 VPWR VGND sg13g2_decap_8
XFILLER_11_221 VPWR VGND sg13g2_decap_8
XFILLER_11_298 VPWR VGND sg13g2_decap_8
XFILLER_24_560 VPWR VGND sg13g2_decap_8
XFILLER_34_42 VPWR VGND sg13g2_decap_8
XFILLER_8_737 VPWR VGND sg13g2_decap_4
XFILLER_7_203 VPWR VGND sg13g2_decap_8
XFILLER_3_431 VPWR VGND sg13g2_decap_8
XFILLER_19_354 VPWR VGND sg13g2_decap_8
XFILLER_46_140 VPWR VGND sg13g2_decap_8
XFILLER_47_641 VPWR VGND sg13g2_fill_2
X_1020_ net111 VGND VPWR _0180_ state\[52\] clknet_5_30__leaf_clk sg13g2_dfrbpq_1
Xclkbuf_4_11_0_clk clknet_0_clk clknet_4_11_0_clk VPWR VGND sg13g2_buf_8
XFILLER_15_593 VPWR VGND sg13g2_decap_8
XFILLER_34_357 VPWR VGND sg13g2_decap_8
XFILLER_30_585 VPWR VGND sg13g2_decap_8
X_0804_ VPWR _0063_ state\[9\] VGND sg13g2_inv_1
X_0735_ _0304_ VPWR _0143_ VGND net83 _0038_ sg13g2_o21ai_1
XFILLER_29_118 VPWR VGND sg13g2_decap_8
XFILLER_41_0 VPWR VGND sg13g2_decap_4
X_0666_ _0114_ _0409_ _0410_ net52 _0243_ VPWR VGND sg13g2_a22oi_1
X_0597_ VGND VPWR net27 daisychain\[32\] _0359_ net49 sg13g2_a21oi_1
XFILLER_25_324 VPWR VGND sg13g2_decap_8
XFILLER_37_140 VPWR VGND sg13g2_decap_8
XFILLER_38_652 VPWR VGND sg13g2_fill_1
XFILLER_38_685 VPWR VGND sg13g2_decap_4
XFILLER_21_596 VPWR VGND sg13g2_decap_8
XFILLER_40_316 VPWR VGND sg13g2_decap_8
XFILLER_20_11 VPWR VGND sg13g2_decap_8
XFILLER_20_66 VPWR VGND sg13g2_decap_8
XFILLER_4_228 VPWR VGND sg13g2_decap_8
XFILLER_0_434 VPWR VGND sg13g2_decap_8
XFILLER_29_20 VPWR VGND sg13g2_decap_8
XFILLER_29_97 VPWR VGND sg13g2_decap_8
XFILLER_48_427 VPWR VGND sg13g2_decap_8
XFILLER_16_368 VPWR VGND sg13g2_decap_8
XFILLER_28_151 VPWR VGND sg13g2_decap_8
XFILLER_29_685 VPWR VGND sg13g2_decap_8
XFILLER_31_338 VPWR VGND sg13g2_decap_8
XFILLER_43_165 VPWR VGND sg13g2_decap_8
XFILLER_45_63 VPWR VGND sg13g2_decap_8
XFILLER_12_552 VPWR VGND sg13g2_decap_8
XFILLER_8_545 VPWR VGND sg13g2_decap_8
XFILLER_6_57 VPWR VGND sg13g2_decap_8
XFILLER_39_405 VPWR VGND sg13g2_decap_8
X_0520_ _0207_ net62 _0300_ _0301_ VPWR VGND sg13g2_a21o_1
XFILLER_13_4 VPWR VGND sg13g2_fill_1
XFILLER_19_151 VPWR VGND sg13g2_decap_8
XFILLER_35_644 VPWR VGND sg13g2_fill_2
XFILLER_39_449 VPWR VGND sg13g2_decap_8
X_1003_ net109 VGND VPWR _0163_ state\[35\] clknet_5_25__leaf_clk sg13g2_dfrbpq_1
XFILLER_30_382 VPWR VGND sg13g2_decap_8
XFILLER_34_154 VPWR VGND sg13g2_decap_8
X_0718_ VGND VPWR net33 daisychain\[62\] _0450_ net34 sg13g2_a21oi_1
X_0649_ VGND VPWR net28 daisychain\[45\] _0398_ net50 sg13g2_a21oi_1
XFILLER_13_338 VPWR VGND sg13g2_decap_8
XFILLER_14_817 VPWR VGND sg13g2_decap_4
XFILLER_15_44 VPWR VGND sg13g2_decap_8
XFILLER_25_121 VPWR VGND sg13g2_decap_8
XFILLER_25_198 VPWR VGND sg13g2_decap_8
XFILLER_26_644 VPWR VGND sg13g2_decap_8
XFILLER_40_113 VPWR VGND sg13g2_decap_8
XFILLER_21_393 VPWR VGND sg13g2_decap_8
XFILLER_31_65 VPWR VGND sg13g2_decap_8
XFILLER_5_515 VPWR VGND sg13g2_decap_8
XFILLER_0_231 VPWR VGND sg13g2_decap_8
XFILLER_1_787 VPWR VGND sg13g2_fill_1
Xoutput8 net8 uio_out[1] VPWR VGND sg13g2_buf_1
Xoutput21 net21 uo_out[6] VPWR VGND sg13g2_buf_1
Xoutput10 net10 uio_out[3] VPWR VGND sg13g2_buf_1
XFILLER_29_482 VPWR VGND sg13g2_decap_8
XFILLER_49_758 VPWR VGND sg13g2_decap_8
XFILLER_48_224 VPWR VGND sg13g2_decap_8
XFILLER_16_165 VPWR VGND sg13g2_decap_8
XFILLER_31_135 VPWR VGND sg13g2_decap_8
XFILLER_32_669 VPWR VGND sg13g2_decap_8
XFILLER_8_342 VPWR VGND sg13g2_decap_8
XFILLER_39_257 VPWR VGND sg13g2_decap_8
X_0503_ net82 VPWR _0288_ VGND net61 state\[10\] sg13g2_o21ai_1
XFILLER_23_603 VPWR VGND sg13g2_decap_8
XFILLER_27_419 VPWR VGND sg13g2_decap_8
XFILLER_35_441 VPWR VGND sg13g2_decap_8
XFILLER_22_168 VPWR VGND sg13g2_decap_8
XFILLER_2_529 VPWR VGND sg13g2_decap_8
XFILLER_45_238 VPWR VGND sg13g2_decap_8
XFILLER_46_739 VPWR VGND sg13g2_fill_2
Xclkbuf_5_23__f_clk clknet_5_23__leaf_clk clknet_4_11_0_clk VPWR VGND sg13g2_buf_16
XFILLER_13_135 VPWR VGND sg13g2_decap_8
XFILLER_26_441 VPWR VGND sg13g2_decap_8
XFILLER_26_98 VPWR VGND sg13g2_decap_8
XFILLER_41_433 VPWR VGND sg13g2_decap_8
XFILLER_21_190 VPWR VGND sg13g2_decap_8
XFILLER_42_86 VPWR VGND sg13g2_decap_8
XFILLER_5_389 VPWR VGND sg13g2_decap_8
XFILLER_5_312 VPWR VGND sg13g2_decap_8
XFILLER_3_25 VPWR VGND sg13g2_decap_8
XFILLER_49_522 VPWR VGND sg13g2_decap_8
XFILLER_17_463 VPWR VGND sg13g2_decap_8
XFILLER_36_238 VPWR VGND sg13g2_decap_8
XFILLER_44_282 VPWR VGND sg13g2_decap_8
XFILLER_49_599 VPWR VGND sg13g2_decap_8
XFILLER_32_466 VPWR VGND sg13g2_decap_8
X_0983_ net105 VGND VPWR _0143_ state\[15\] clknet_5_5__leaf_clk sg13g2_dfrbpq_1
XFILLER_9_662 VPWR VGND sg13g2_decap_8
Xfanout107 net108 net107 VPWR VGND sg13g2_buf_1
XFILLER_27_216 VPWR VGND sg13g2_decap_8
XFILLER_28_739 VPWR VGND sg13g2_decap_4
XFILLER_11_606 VPWR VGND sg13g2_fill_2
XFILLER_11_617 VPWR VGND sg13g2_fill_2
XFILLER_23_400 VPWR VGND sg13g2_decap_8
XFILLER_23_477 VPWR VGND sg13g2_decap_8
XFILLER_12_34 VPWR VGND sg13g2_decap_8
XFILLER_2_326 VPWR VGND sg13g2_decap_8
XFILLER_14_422 VPWR VGND sg13g2_decap_8
XFILLER_18_238 VPWR VGND sg13g2_decap_8
XFILLER_37_42 VPWR VGND sg13g2_decap_8
XFILLER_46_525 VPWR VGND sg13g2_decap_8
XFILLER_14_499 VPWR VGND sg13g2_decap_8
XFILLER_41_230 VPWR VGND sg13g2_decap_8
XFILLER_45_7 VPWR VGND sg13g2_decap_8
XFILLER_5_186 VPWR VGND sg13g2_decap_8
XFILLER_1_392 VPWR VGND sg13g2_decap_8
XFILLER_37_525 VPWR VGND sg13g2_decap_8
XFILLER_49_396 VPWR VGND sg13g2_decap_8
XFILLER_17_260 VPWR VGND sg13g2_decap_8
XFILLER_32_263 VPWR VGND sg13g2_decap_8
XFILLER_20_458 VPWR VGND sg13g2_decap_8
X_0897_ VPWR _0248_ daisychain\[55\] VGND sg13g2_inv_1
X_0966_ net97 VGND VPWR _0126_ daisychain\[62\] clknet_5_2__leaf_clk sg13g2_dfrbpq_1
XFILLER_0_819 VPWR VGND sg13g2_decap_4
XFILLER_15_219 VPWR VGND sg13g2_decap_8
XFILLER_28_536 VPWR VGND sg13g2_decap_8
XFILLER_43_539 VPWR VGND sg13g2_decap_8
XFILLER_11_403 VPWR VGND sg13g2_decap_8
XFILLER_23_11 VPWR VGND sg13g2_decap_8
XFILLER_23_274 VPWR VGND sg13g2_decap_8
XFILLER_23_99 VPWR VGND sg13g2_decap_8
XFILLER_2_123 VPWR VGND sg13g2_decap_8
XFILLER_19_536 VPWR VGND sg13g2_decap_8
XFILLER_46_322 VPWR VGND sg13g2_decap_8
XFILLER_48_63 VPWR VGND sg13g2_decap_8
XFILLER_47_801 VPWR VGND sg13g2_fill_1
XFILLER_27_580 VPWR VGND sg13g2_decap_8
XFILLER_34_539 VPWR VGND sg13g2_decap_8
XFILLER_46_399 VPWR VGND sg13g2_decap_8
XFILLER_14_296 VPWR VGND sg13g2_decap_8
XFILLER_30_778 VPWR VGND sg13g2_decap_8
X_0820_ VPWR _0040_ state\[17\] VGND sg13g2_inv_1
X_0751_ _0352_ VPWR _0159_ VGND net86 _0056_ sg13g2_o21ai_1
XFILLER_9_46 VPWR VGND sg13g2_decap_8
X_0682_ _0118_ _0421_ _0422_ net48 _0247_ VPWR VGND sg13g2_a22oi_1
XFILLER_6_484 VPWR VGND sg13g2_decap_8
XFILLER_37_322 VPWR VGND sg13g2_decap_8
XFILLER_37_399 VPWR VGND sg13g2_decap_8
XFILLER_49_193 VPWR VGND sg13g2_decap_8
XFILLER_20_255 VPWR VGND sg13g2_decap_8
XFILLER_21_701 VPWR VGND sg13g2_fill_2
XFILLER_33_550 VPWR VGND sg13g2_decap_8
X_0949_ net112 VGND VPWR _0109_ daisychain\[45\] clknet_5_19__leaf_clk sg13g2_dfrbpq_1
XFILLER_0_627 VPWR VGND sg13g2_decap_8
XFILLER_28_333 VPWR VGND sg13g2_decap_8
XFILLER_47_119 VPWR VGND sg13g2_decap_8
XFILLER_48_609 VPWR VGND sg13g2_decap_8
XFILLER_18_77 VPWR VGND sg13g2_decap_8
XFILLER_34_21 VPWR VGND sg13g2_decap_8
XFILLER_43_369 VPWR VGND sg13g2_decap_8
XFILLER_11_200 VPWR VGND sg13g2_decap_8
XFILLER_11_277 VPWR VGND sg13g2_decap_8
XFILLER_34_98 VPWR VGND sg13g2_decap_8
XFILLER_7_259 VPWR VGND sg13g2_decap_8
XFILLER_1_0 VPWR VGND sg13g2_decap_8
XFILLER_3_410 VPWR VGND sg13g2_decap_8
XFILLER_3_487 VPWR VGND sg13g2_decap_8
XFILLER_19_333 VPWR VGND sg13g2_decap_8
XFILLER_38_119 VPWR VGND sg13g2_decap_8
XFILLER_30_564 VPWR VGND sg13g2_decap_8
XFILLER_34_336 VPWR VGND sg13g2_decap_8
XFILLER_46_196 VPWR VGND sg13g2_decap_8
X_0803_ VPWR _0201_ daisychain\[8\] VGND sg13g2_inv_1
X_0734_ _0301_ VPWR _0142_ VGND net83 _0037_ sg13g2_o21ai_1
X_0665_ VGND VPWR net29 daisychain\[49\] _0410_ net52 sg13g2_a21oi_1
XFILLER_6_281 VPWR VGND sg13g2_decap_8
XFILLER_34_0 VPWR VGND sg13g2_decap_8
X_0596_ _0226_ net69 _0357_ _0358_ VPWR VGND sg13g2_a21o_1
XFILLER_1_91 VPWR VGND sg13g2_decap_8
XFILLER_25_303 VPWR VGND sg13g2_decap_8
XFILLER_37_196 VPWR VGND sg13g2_decap_8
Xclkbuf_5_4__f_clk clknet_5_4__leaf_clk clknet_4_2_0_clk VPWR VGND sg13g2_buf_16
XFILLER_21_575 VPWR VGND sg13g2_decap_8
XFILLER_0_413 VPWR VGND sg13g2_decap_8
XFILLER_20_45 VPWR VGND sg13g2_decap_8
XFILLER_4_207 VPWR VGND sg13g2_decap_8
XFILLER_28_130 VPWR VGND sg13g2_decap_8
XFILLER_29_664 VPWR VGND sg13g2_decap_8
XFILLER_29_76 VPWR VGND sg13g2_decap_8
XFILLER_48_406 VPWR VGND sg13g2_decap_8
XFILLER_12_531 VPWR VGND sg13g2_decap_8
XFILLER_16_347 VPWR VGND sg13g2_decap_8
XFILLER_31_317 VPWR VGND sg13g2_decap_8
XFILLER_43_144 VPWR VGND sg13g2_decap_8
XFILLER_44_634 VPWR VGND sg13g2_decap_4
XFILLER_45_42 VPWR VGND sg13g2_decap_8
XFILLER_8_524 VPWR VGND sg13g2_decap_8
XFILLER_6_36 VPWR VGND sg13g2_decap_8
XFILLER_6_25 VPWR VGND sg13g2_fill_1
XFILLER_3_284 VPWR VGND sg13g2_decap_8
XFILLER_19_130 VPWR VGND sg13g2_decap_8
XFILLER_34_133 VPWR VGND sg13g2_decap_8
XFILLER_35_623 VPWR VGND sg13g2_decap_8
XFILLER_47_483 VPWR VGND sg13g2_decap_8
X_1002_ net109 VGND VPWR _0162_ state\[34\] clknet_5_28__leaf_clk sg13g2_dfrbpq_1
XFILLER_15_380 VPWR VGND sg13g2_decap_8
XFILLER_30_361 VPWR VGND sg13g2_decap_8
X_0717_ _0256_ net55 _0448_ _0449_ VPWR VGND sg13g2_a21o_1
X_0648_ _0239_ net71 _0396_ _0397_ VPWR VGND sg13g2_a21o_1
XFILLER_26_623 VPWR VGND sg13g2_decap_8
XFILLER_38_483 VPWR VGND sg13g2_decap_8
X_0579_ net81 VPWR _0345_ VGND net60 state\[29\] sg13g2_o21ai_1
XFILLER_13_317 VPWR VGND sg13g2_decap_8
XFILLER_25_100 VPWR VGND sg13g2_decap_8
XFILLER_25_177 VPWR VGND sg13g2_decap_8
XFILLER_41_648 VPWR VGND sg13g2_decap_8
XFILLER_21_372 VPWR VGND sg13g2_decap_8
XFILLER_31_11 VPWR VGND sg13g2_fill_1
XFILLER_31_44 VPWR VGND sg13g2_decap_8
XFILLER_40_169 VPWR VGND sg13g2_decap_8
Xclkbuf_4_10_0_clk clknet_0_clk clknet_4_10_0_clk VPWR VGND sg13g2_buf_8
XFILLER_0_210 VPWR VGND sg13g2_decap_8
XFILLER_0_287 VPWR VGND sg13g2_decap_8
Xoutput9 net9 uio_out[2] VPWR VGND sg13g2_buf_1
Xoutput22 net22 uo_out[7] VPWR VGND sg13g2_buf_1
Xoutput11 net11 uio_out[4] VPWR VGND sg13g2_buf_1
XFILLER_49_748 VPWR VGND sg13g2_decap_4
XFILLER_48_203 VPWR VGND sg13g2_decap_8
XFILLER_16_144 VPWR VGND sg13g2_decap_8
XFILLER_17_645 VPWR VGND sg13g2_decap_8
XFILLER_29_461 VPWR VGND sg13g2_decap_8
XFILLER_44_464 VPWR VGND sg13g2_decap_4
XFILLER_31_114 VPWR VGND sg13g2_decap_8
XFILLER_32_648 VPWR VGND sg13g2_decap_8
XFILLER_44_486 VPWR VGND sg13g2_decap_8
XFILLER_8_321 VPWR VGND sg13g2_decap_8
X_0502_ _0073_ _0286_ _0287_ net40 _0202_ VPWR VGND sg13g2_a22oi_1
XFILLER_8_398 VPWR VGND sg13g2_decap_8
XFILLER_39_236 VPWR VGND sg13g2_decap_8
XFILLER_22_147 VPWR VGND sg13g2_decap_8
XFILLER_23_659 VPWR VGND sg13g2_decap_8
XFILLER_35_420 VPWR VGND sg13g2_decap_8
XFILLER_35_497 VPWR VGND sg13g2_decap_8
XFILLER_47_280 VPWR VGND sg13g2_decap_8
XFILLER_31_681 VPWR VGND sg13g2_fill_2
XFILLER_2_508 VPWR VGND sg13g2_decap_8
XFILLER_14_604 VPWR VGND sg13g2_decap_8
XFILLER_26_11 VPWR VGND sg13g2_fill_2
XFILLER_26_420 VPWR VGND sg13g2_decap_8
XFILLER_38_280 VPWR VGND sg13g2_decap_8
XFILLER_45_217 VPWR VGND sg13g2_decap_8
XFILLER_13_114 VPWR VGND sg13g2_decap_8
XFILLER_26_497 VPWR VGND sg13g2_decap_8
XFILLER_26_77 VPWR VGND sg13g2_decap_8
XFILLER_41_412 VPWR VGND sg13g2_decap_8
XFILLER_41_489 VPWR VGND sg13g2_decap_8
XFILLER_42_32 VPWR VGND sg13g2_fill_1
XFILLER_42_65 VPWR VGND sg13g2_decap_8
XFILLER_5_368 VPWR VGND sg13g2_decap_8
XFILLER_1_585 VPWR VGND sg13g2_fill_2
XFILLER_36_217 VPWR VGND sg13g2_decap_8
XFILLER_49_578 VPWR VGND sg13g2_decap_8
XFILLER_49_501 VPWR VGND sg13g2_decap_8
XFILLER_17_442 VPWR VGND sg13g2_decap_8
XFILLER_32_445 VPWR VGND sg13g2_decap_8
XFILLER_44_261 VPWR VGND sg13g2_decap_8
X_0982_ net105 VGND VPWR _0142_ state\[14\] clknet_5_7__leaf_clk sg13g2_dfrbpq_1
XFILLER_8_195 VPWR VGND sg13g2_decap_8
Xfanout108 net116 net108 VPWR VGND sg13g2_buf_1
XFILLER_28_718 VPWR VGND sg13g2_decap_8
XFILLER_10_139 VPWR VGND sg13g2_decap_8
XFILLER_11_629 VPWR VGND sg13g2_fill_2
XFILLER_23_456 VPWR VGND sg13g2_decap_8
XFILLER_35_294 VPWR VGND sg13g2_decap_8
XFILLER_12_13 VPWR VGND sg13g2_decap_8
XFILLER_2_305 VPWR VGND sg13g2_decap_8
XFILLER_19_718 VPWR VGND sg13g2_fill_2
XFILLER_37_21 VPWR VGND sg13g2_decap_8
XFILLER_46_504 VPWR VGND sg13g2_decap_8
XFILLER_14_401 VPWR VGND sg13g2_decap_8
XFILLER_18_217 VPWR VGND sg13g2_decap_8
XFILLER_26_294 VPWR VGND sg13g2_decap_8
XFILLER_37_98 VPWR VGND sg13g2_decap_8
XFILLER_42_732 VPWR VGND sg13g2_decap_4
XFILLER_14_478 VPWR VGND sg13g2_decap_8
XFILLER_41_286 VPWR VGND sg13g2_decap_8
XFILLER_1_371 VPWR VGND sg13g2_decap_8
XFILLER_38_7 VPWR VGND sg13g2_decap_8
XFILLER_5_165 VPWR VGND sg13g2_decap_8
XFILLER_37_504 VPWR VGND sg13g2_decap_8
XFILLER_49_375 VPWR VGND sg13g2_decap_8
XFILLER_18_773 VPWR VGND sg13g2_decap_8
XFILLER_20_437 VPWR VGND sg13g2_decap_8
XFILLER_32_242 VPWR VGND sg13g2_decap_8
XFILLER_33_798 VPWR VGND sg13g2_decap_8
XFILLER_45_581 VPWR VGND sg13g2_decap_8
X_0896_ VPWR _0015_ state\[55\] VGND sg13g2_inv_1
X_0965_ net97 VGND VPWR _0125_ daisychain\[61\] clknet_5_10__leaf_clk sg13g2_dfrbpq_1
XFILLER_28_515 VPWR VGND sg13g2_decap_8
XFILLER_36_581 VPWR VGND sg13g2_decap_8
XFILLER_43_518 VPWR VGND sg13g2_decap_8
XFILLER_11_459 VPWR VGND sg13g2_decap_8
XFILLER_23_253 VPWR VGND sg13g2_decap_8
XFILLER_23_78 VPWR VGND sg13g2_decap_8
XFILLER_2_102 VPWR VGND sg13g2_decap_8
XFILLER_2_179 VPWR VGND sg13g2_decap_8
XFILLER_3_4 VPWR VGND sg13g2_decap_8
XFILLER_3_603 VPWR VGND sg13g2_fill_1
XFILLER_0_49 VPWR VGND sg13g2_decap_8
XFILLER_19_515 VPWR VGND sg13g2_decap_8
XFILLER_46_301 VPWR VGND sg13g2_decap_8
XFILLER_48_42 VPWR VGND sg13g2_decap_8
XFILLER_47_813 VPWR VGND sg13g2_decap_8
XFILLER_14_275 VPWR VGND sg13g2_decap_8
XFILLER_15_787 VPWR VGND sg13g2_decap_4
XFILLER_15_798 VPWR VGND sg13g2_fill_1
XFILLER_34_518 VPWR VGND sg13g2_decap_8
XFILLER_46_378 VPWR VGND sg13g2_decap_8
XFILLER_9_25 VPWR VGND sg13g2_decap_8
Xfanout90 net95 net90 VPWR VGND sg13g2_buf_1
X_0750_ _0349_ VPWR _0158_ VGND net87 _0055_ sg13g2_o21ai_1
X_0681_ VGND VPWR net30 daisychain\[53\] _0422_ net49 sg13g2_a21oi_1
XFILLER_6_463 VPWR VGND sg13g2_decap_8
XFILLER_18_581 VPWR VGND sg13g2_decap_8
XFILLER_37_301 VPWR VGND sg13g2_decap_8
XFILLER_37_378 VPWR VGND sg13g2_decap_8
XFILLER_49_172 VPWR VGND sg13g2_decap_8
XFILLER_20_234 VPWR VGND sg13g2_decap_8
XFILLER_21_724 VPWR VGND sg13g2_fill_1
X_0948_ net112 VGND VPWR _0108_ daisychain\[44\] clknet_5_18__leaf_clk sg13g2_dfrbpq_1
X_0879_ VPWR _0239_ daisychain\[46\] VGND sg13g2_inv_1
XFILLER_18_56 VPWR VGND sg13g2_decap_8
XFILLER_28_312 VPWR VGND sg13g2_decap_8
XFILLER_24_595 VPWR VGND sg13g2_decap_8
XFILLER_28_389 VPWR VGND sg13g2_decap_8
XFILLER_34_77 VPWR VGND sg13g2_decap_8
XFILLER_43_348 VPWR VGND sg13g2_decap_8
XFILLER_11_256 VPWR VGND sg13g2_decap_8
XFILLER_7_238 VPWR VGND sg13g2_decap_8
XFILLER_3_466 VPWR VGND sg13g2_decap_8
XFILLER_19_312 VPWR VGND sg13g2_decap_8
XFILLER_19_389 VPWR VGND sg13g2_decap_8
XFILLER_34_315 VPWR VGND sg13g2_decap_8
XFILLER_46_175 VPWR VGND sg13g2_decap_8
XFILLER_47_676 VPWR VGND sg13g2_fill_1
XFILLER_30_543 VPWR VGND sg13g2_decap_8
XFILLER_42_392 VPWR VGND sg13g2_decap_8
X_0802_ VPWR _0062_ state\[8\] VGND sg13g2_inv_1
X_0733_ _0298_ VPWR _0141_ VGND net82 _0036_ sg13g2_o21ai_1
X_0664_ _0243_ net72 _0408_ _0409_ VPWR VGND sg13g2_a21o_1
XFILLER_6_260 VPWR VGND sg13g2_decap_8
XFILLER_27_0 VPWR VGND sg13g2_decap_8
X_0595_ net90 VPWR _0357_ VGND net69 state\[33\] sg13g2_o21ai_1
XFILLER_1_70 VPWR VGND sg13g2_decap_8
XFILLER_25_359 VPWR VGND sg13g2_decap_8
XFILLER_37_175 VPWR VGND sg13g2_decap_8
XFILLER_20_24 VPWR VGND sg13g2_decap_8
XFILLER_21_554 VPWR VGND sg13g2_decap_8
XFILLER_0_469 VPWR VGND sg13g2_decap_8
XFILLER_16_326 VPWR VGND sg13g2_decap_8
XFILLER_17_805 VPWR VGND sg13g2_fill_1
XFILLER_17_816 VPWR VGND sg13g2_decap_8
XFILLER_28_186 VPWR VGND sg13g2_decap_8
XFILLER_29_55 VPWR VGND sg13g2_decap_8
XFILLER_29_643 VPWR VGND sg13g2_decap_8
XFILLER_43_123 VPWR VGND sg13g2_decap_8
XFILLER_45_21 VPWR VGND sg13g2_decap_8
Xdigitalen.g\[2\].u.inv1 VPWR digitalen.g\[2\].u.OUTN net6 VGND sg13g2_inv_1
XFILLER_12_510 VPWR VGND sg13g2_decap_8
XFILLER_12_587 VPWR VGND sg13g2_decap_8
XFILLER_24_392 VPWR VGND sg13g2_decap_8
XFILLER_45_98 VPWR VGND sg13g2_decap_8
XFILLER_8_503 VPWR VGND sg13g2_decap_8
XFILLER_3_263 VPWR VGND sg13g2_decap_8
XFILLER_10_90 VPWR VGND sg13g2_decap_8