* NGSPICE file created from heichips25_pudding.ext - technology: ihp-sg13g2

* Black-box entry subcircuit for sg13g2_decap_8 abstract view
.subckt sg13g2_decap_8 VDD VSS
.ends

* Black-box entry subcircuit for sg13g2_o21ai_1 abstract view
.subckt sg13g2_o21ai_1 B1 VDD Y VSS A1 A2
.ends

* Black-box entry subcircuit for sg13g2_dfrbpq_1 abstract view
.subckt sg13g2_dfrbpq_1 RESET_B VSS VDD D Q CLK
.ends

* Black-box entry subcircuit for sg13g2_a21oi_1 abstract view
.subckt sg13g2_a21oi_1 VSS VDD A1 A2 Y B1
.ends

* Black-box entry subcircuit for sg13g2_a22oi_1 abstract view
.subckt sg13g2_a22oi_1 Y B1 B2 A2 A1 VDD VSS
.ends

* Black-box entry subcircuit for sg13g2_fill_2 abstract view
.subckt sg13g2_fill_2 VDD VSS
.ends

* Black-box entry subcircuit for sg13g2_decap_4 abstract view
.subckt sg13g2_decap_4 VDD VSS
.ends

* Black-box entry subcircuit for sg13g2_inv_1 abstract view
.subckt sg13g2_inv_1 VDD Y A VSS
.ends

* Black-box entry subcircuit for sg13g2_buf_8 abstract view
.subckt sg13g2_buf_8 A X VDD VSS
.ends

* Black-box entry subcircuit for sg13g2_fill_1 abstract view
.subckt sg13g2_fill_1 VDD VSS
.ends

* Black-box entry subcircuit for sg13g2_a21o_1 abstract view
.subckt sg13g2_a21o_1 A2 A1 B1 X VDD VSS
.ends

* Black-box entry subcircuit for sg13g2_tiehi abstract view
.subckt sg13g2_tiehi VDD VSS L_HI
.ends

* Black-box entry subcircuit for sg13g2_buf_1 abstract view
.subckt sg13g2_buf_1 A X VDD VSS
.ends

* Black-box entry subcircuit for sg13g2_nor2_1 abstract view
.subckt sg13g2_nor2_1 A B Y VDD VSS
.ends

* Black-box entry subcircuit for sg13g2_buf_16 abstract view
.subckt sg13g2_buf_16 X A VDD VSS
.ends

* Black-box entry subcircuit for analog_wires abstract view
.subckt analog_wires Iout VcascP[1] VcascP[0] VbiasP[1] VbiasP[0] VDDA[1] VDDA[0]
+ i_in i_out
.ends

* Black-box entry subcircuit for dac32module abstract view
.subckt dac32module EN[1] ENB[1] EN[2] ENB[2] ON[16] ONB[16] ON[17] ONB[17] ON[18]
+ ONB[18] ON[19] ONB[19] ON[20] ONB[20] ON[21] ONB[21] ON[22] ONB[22] ON[23] ONB[23]
+ ON[24] ONB[24] ON[25] ONB[25] ON[26] ONB[26] ON[27] ONB[27] ON[28] ONB[28] ON[29]
+ ONB[29] ON[30] ONB[30] ON[31] ONB[31] EN[3] ENB[3] ON[0] ONB[0] ON[1] ONB[1] ON[2]
+ ONB[2] ON[3] ONB[3] ON[4] ONB[4] ON[5] ONB[5] ON[6] EN[0] ENB[0] ONB[6] ON[7] ONB[7]
+ ON[8] ONB[8] ON[9] ONB[9] ON[10] ONB[10] ON[11] ONB[11] ON[12] ONB[12] ON[13] ONB[13]
+ ON[14] ONB[14] ON[15] ONB[15] Iout VbiasP[0] VbiasP[1] VcascP[1] VcascP[0] VDD VSS
.ends

.subckt heichips25_pudding VGND VPWR clk ena i_in i_out rst_n ui_in[0] ui_in[1] ui_in[2]
+ ui_in[3] ui_in[4] ui_in[5] ui_in[6] ui_in[7] uio_in[0] uio_in[1] uio_in[2] uio_in[3]
+ uio_in[4] uio_in[5] uio_in[6] uio_in[7] uio_oe[0] uio_oe[1] uio_oe[2] uio_oe[3]
+ uio_oe[4] uio_oe[5] uio_oe[6] uio_oe[7] uio_out[0] uio_out[1] uio_out[2] uio_out[3]
+ uio_out[4] uio_out[5] uio_out[6] uio_out[7] uo_out[0] uo_out[1] uo_out[2] uo_out[3]
+ uo_out[4] uo_out[5] uo_out[6] uo_out[7]
XFILLER_39_266 VPWR VGND sg13g2_decap_8
XFILLER_22_155 VPWR VGND sg13g2_decap_8
XFILLER_35_483 VPWR VGND sg13g2_decap_8
XFILLER_7_7 VPWR VGND sg13g2_decap_8
XFILLER_13_111 VPWR VGND sg13g2_decap_8
XFILLER_14_601 VPWR VGND sg13g2_decap_8
XFILLER_41_420 VPWR VGND sg13g2_decap_8
XFILLER_45_203 VPWR VGND sg13g2_decap_8
X_432_ _167_ VPWR _076_ VGND net57 _003_ sg13g2_o21ai_1
X_501_ net69 VGND VPWR _081_ state\[17\] clknet_4_7_0_clk sg13g2_dfrbpq_1
XFILLER_13_188 VPWR VGND sg13g2_decap_8
XFILLER_14_678 VPWR VGND sg13g2_decap_8
XFILLER_41_497 VPWR VGND sg13g2_decap_8
XFILLER_42_84 VPWR VGND sg13g2_decap_8
X_294_ VGND VPWR net34 net2 _132_ net27 sg13g2_a21oi_1
X_363_ _049_ _182_ _183_ net32 _114_ VPWR VGND sg13g2_a22oi_1
XFILLER_9_137 VPWR VGND sg13g2_decap_8
XFILLER_1_560 VPWR VGND sg13g2_decap_8
XFILLER_5_354 VPWR VGND sg13g2_decap_8
XFILLER_24_409 VPWR VGND sg13g2_decap_8
XFILLER_36_203 VPWR VGND sg13g2_decap_8
XFILLER_3_67 VPWR VGND sg13g2_decap_8
XFILLER_49_564 VPWR VGND sg13g2_decap_8
XFILLER_17_461 VPWR VGND sg13g2_decap_8
XFILLER_20_626 VPWR VGND sg13g2_fill_2
XFILLER_32_431 VPWR VGND sg13g2_decap_8
XFILLER_44_280 VPWR VGND sg13g2_decap_8
XFILLER_45_770 VPWR VGND sg13g2_decap_8
XFILLER_27_258 VPWR VGND sg13g2_decap_8
XFILLER_35_280 VPWR VGND sg13g2_decap_8
XFILLER_36_770 VPWR VGND sg13g2_decap_8
XFILLER_42_217 VPWR VGND sg13g2_decap_8
XFILLER_43_707 VPWR VGND sg13g2_decap_8
XFILLER_10_158 VPWR VGND sg13g2_decap_8
XFILLER_11_648 VPWR VGND sg13g2_decap_8
XFILLER_12_32 VPWR VGND sg13g2_decap_8
XFILLER_23_442 VPWR VGND sg13g2_decap_8
XFILLER_2_368 VPWR VGND sg13g2_decap_8
XFILLER_5_4 VPWR VGND sg13g2_decap_8
XFILLER_18_258 VPWR VGND sg13g2_decap_8
XFILLER_34_707 VPWR VGND sg13g2_decap_4
XFILLER_37_84 VPWR VGND sg13g2_decap_8
XFILLER_46_567 VPWR VGND sg13g2_decap_8
XFILLER_14_475 VPWR VGND sg13g2_decap_8
XFILLER_33_228 VPWR VGND sg13g2_decap_8
XFILLER_42_784 VPWR VGND sg13g2_decap_8
X_346_ VGND VPWR net35 daisychain\[12\] _171_ net30 sg13g2_a21oi_1
X_415_ _062_ _221_ _222_ net24 _127_ VPWR VGND sg13g2_a22oi_1
XFILLER_41_294 VPWR VGND sg13g2_decap_8
X_277_ VPWR _017_ state\[25\] VGND sg13g2_inv_1
XFILLER_6_641 VPWR VGND sg13g2_decap_8
XFILLER_5_151 VPWR VGND sg13g2_decap_8
XFILLER_18_781 VPWR VGND sg13g2_fill_2
XFILLER_24_206 VPWR VGND sg13g2_decap_8
XFILLER_37_567 VPWR VGND sg13g2_decap_8
XFILLER_49_361 VPWR VGND sg13g2_decap_8
XFILLER_20_423 VPWR VGND sg13g2_decap_8
Xclkbuf_4_12_0_clk clknet_0_clk clknet_4_12_0_clk VPWR VGND sg13g2_buf_8
XFILLER_28_545 VPWR VGND sg13g2_decap_8
XFILLER_23_20 VPWR VGND sg13g2_decap_8
XFILLER_43_504 VPWR VGND sg13g2_decap_8
XFILLER_11_445 VPWR VGND sg13g2_decap_8
XFILLER_7_427 VPWR VGND sg13g2_decap_8
XFILLER_2_165 VPWR VGND sg13g2_decap_8
XFILLER_3_655 VPWR VGND sg13g2_decap_8
XFILLER_0_35 VPWR VGND sg13g2_decap_8
XFILLER_19_545 VPWR VGND sg13g2_decap_8
XFILLER_34_504 VPWR VGND sg13g2_decap_8
XFILLER_46_364 VPWR VGND sg13g2_decap_8
XFILLER_14_272 VPWR VGND sg13g2_decap_8
XFILLER_15_740 VPWR VGND sg13g2_decap_8
XFILLER_30_787 VPWR VGND sg13g2_fill_1
XFILLER_30_798 VPWR VGND sg13g2_decap_4
XFILLER_42_581 VPWR VGND sg13g2_decap_8
X_329_ _106_ net45 _157_ _158_ VPWR VGND sg13g2_a21o_1
XFILLER_9_88 VPWR VGND sg13g2_decap_8
XFILLER_9_11 VPWR VGND sg13g2_decap_8
XFILLER_25_537 VPWR VGND sg13g2_decap_8
XFILLER_37_364 VPWR VGND sg13g2_decap_8
XFILLER_40_518 VPWR VGND sg13g2_decap_8
XFILLER_20_220 VPWR VGND sg13g2_decap_8
XFILLER_20_297 VPWR VGND sg13g2_decap_8
XFILLER_33_592 VPWR VGND sg13g2_decap_8
XFILLER_0_658 VPWR VGND sg13g2_decap_8
XFILLER_18_20 VPWR VGND sg13g2_decap_8
XFILLER_18_97 VPWR VGND sg13g2_decap_8
XFILLER_28_320 VPWR VGND sg13g2_decap_8
XFILLER_28_397 VPWR VGND sg13g2_decap_8
XFILLER_43_301 VPWR VGND sg13g2_decap_8
XFILLER_11_242 VPWR VGND sg13g2_decap_8
XFILLER_12_732 VPWR VGND sg13g2_decap_8
XFILLER_16_559 VPWR VGND sg13g2_decap_8
XFILLER_24_581 VPWR VGND sg13g2_decap_8
XFILLER_31_529 VPWR VGND sg13g2_decap_8
XFILLER_34_63 VPWR VGND sg13g2_decap_8
XFILLER_43_378 VPWR VGND sg13g2_decap_8
XFILLER_8_725 VPWR VGND sg13g2_decap_8
XFILLER_3_452 VPWR VGND sg13g2_decap_8
XFILLER_7_224 VPWR VGND sg13g2_decap_8
XFILLER_19_342 VPWR VGND sg13g2_decap_8
XFILLER_34_301 VPWR VGND sg13g2_decap_8
XFILLER_34_378 VPWR VGND sg13g2_decap_8
XFILLER_46_161 VPWR VGND sg13g2_decap_8
XFILLER_47_651 VPWR VGND sg13g2_decap_8
XFILLER_7_791 VPWR VGND sg13g2_decap_8
XFILLER_29_139 VPWR VGND sg13g2_decap_8
XFILLER_37_161 VPWR VGND sg13g2_decap_8
XFILLER_38_651 VPWR VGND sg13g2_decap_8
XFILLER_25_367 VPWR VGND sg13g2_decap_8
XFILLER_40_315 VPWR VGND sg13g2_decap_8
XFILLER_41_805 VPWR VGND sg13g2_decap_8
XFILLER_20_32 VPWR VGND sg13g2_fill_2
XFILLER_21_584 VPWR VGND sg13g2_decap_8
XFILLER_5_739 VPWR VGND sg13g2_decap_8
XFILLER_4_249 VPWR VGND sg13g2_decap_8
XFILLER_0_455 VPWR VGND sg13g2_decap_8
XFILLER_20_87 VPWR VGND sg13g2_decap_8
XFILLER_29_41 VPWR VGND sg13g2_decap_8
XFILLER_48_448 VPWR VGND sg13g2_decap_8
XFILLER_16_356 VPWR VGND sg13g2_decap_8
XFILLER_28_194 VPWR VGND sg13g2_decap_8
XFILLER_31_326 VPWR VGND sg13g2_decap_8
XFILLER_32_805 VPWR VGND sg13g2_fill_1
XFILLER_32_816 VPWR VGND sg13g2_decap_8
XFILLER_43_175 VPWR VGND sg13g2_decap_8
XFILLER_44_665 VPWR VGND sg13g2_decap_8
XFILLER_45_84 VPWR VGND sg13g2_decap_8
XFILLER_8_522 VPWR VGND sg13g2_decap_8
XFILLER_8_599 VPWR VGND sg13g2_decap_8
XFILLER_6_67 VPWR VGND sg13g2_decap_8
XFILLER_20_4 VPWR VGND sg13g2_fill_1
XFILLER_39_448 VPWR VGND sg13g2_decap_8
XFILLER_22_337 VPWR VGND sg13g2_decap_8
XFILLER_34_175 VPWR VGND sg13g2_decap_8
XFILLER_35_665 VPWR VGND sg13g2_decap_8
Xheichips25_pudding_73 VPWR VGND uio_oe[2] sg13g2_tiehi
XFILLER_25_164 VPWR VGND sg13g2_decap_8
XFILLER_41_602 VPWR VGND sg13g2_decap_8
XFILLER_15_76 VPWR VGND sg13g2_decap_8
XFILLER_21_381 VPWR VGND sg13g2_decap_8
XFILLER_31_53 VPWR VGND sg13g2_decap_8
XFILLER_40_112 VPWR VGND sg13g2_decap_8
XFILLER_40_189 VPWR VGND sg13g2_decap_8
XFILLER_41_679 VPWR VGND sg13g2_decap_8
XFILLER_9_319 VPWR VGND sg13g2_decap_8
XFILLER_1_742 VPWR VGND sg13g2_decap_8
Xoutput7 net7 uio_out[0] VPWR VGND sg13g2_buf_1
Xoutput20 net20 uo_out[5] VPWR VGND sg13g2_buf_1
XFILLER_5_536 VPWR VGND sg13g2_decap_8
XFILLER_0_252 VPWR VGND sg13g2_decap_8
XFILLER_49_746 VPWR VGND sg13g2_decap_8
XFILLER_48_245 VPWR VGND sg13g2_decap_8
XFILLER_16_153 VPWR VGND sg13g2_decap_8
XFILLER_17_643 VPWR VGND sg13g2_decap_4
XFILLER_31_123 VPWR VGND sg13g2_decap_8
XFILLER_32_613 VPWR VGND sg13g2_decap_8
XFILLER_44_462 VPWR VGND sg13g2_decap_8
XFILLER_8_396 VPWR VGND sg13g2_decap_8
XFILLER_35_462 VPWR VGND sg13g2_decap_8
XFILLER_39_245 VPWR VGND sg13g2_decap_8
XFILLER_22_134 VPWR VGND sg13g2_decap_8
XFILLER_23_657 VPWR VGND sg13g2_fill_2
X_500_ net69 VGND VPWR _080_ state\[16\] clknet_4_6_0_clk sg13g2_dfrbpq_1
XFILLER_46_749 VPWR VGND sg13g2_decap_8
XFILLER_13_167 VPWR VGND sg13g2_decap_8
XFILLER_14_657 VPWR VGND sg13g2_decap_8
XFILLER_26_64 VPWR VGND sg13g2_decap_8
XFILLER_26_86 VPWR VGND sg13g2_decap_8
XFILLER_41_476 VPWR VGND sg13g2_decap_8
XFILLER_45_259 VPWR VGND sg13g2_decap_8
X_362_ VGND VPWR net36 daisychain\[16\] _183_ net32 sg13g2_a21oi_1
X_431_ _164_ VPWR _075_ VGND net56 _002_ sg13g2_o21ai_1
XFILLER_9_116 VPWR VGND sg13g2_decap_8
XFILLER_22_690 VPWR VGND sg13g2_decap_4
XFILLER_42_63 VPWR VGND sg13g2_decap_8
X_293_ net51 net3 _131_ VPWR VGND sg13g2_nor2_1
XFILLER_5_333 VPWR VGND sg13g2_decap_8
XFILLER_3_46 VPWR VGND sg13g2_decap_8
XFILLER_17_440 VPWR VGND sg13g2_decap_8
XFILLER_36_259 VPWR VGND sg13g2_decap_8
XFILLER_37_749 VPWR VGND sg13g2_decap_8
XFILLER_49_543 VPWR VGND sg13g2_decap_8
XFILLER_32_410 VPWR VGND sg13g2_decap_8
XFILLER_32_487 VPWR VGND sg13g2_decap_8
XFILLER_9_683 VPWR VGND sg13g2_decap_8
XFILLER_8_193 VPWR VGND sg13g2_decap_8
XFILLER_28_716 VPWR VGND sg13g2_fill_1
XFILLER_23_421 VPWR VGND sg13g2_decap_8
XFILLER_27_237 VPWR VGND sg13g2_decap_8
XFILLER_10_137 VPWR VGND sg13g2_decap_8
XFILLER_11_627 VPWR VGND sg13g2_decap_8
XFILLER_12_11 VPWR VGND sg13g2_decap_8
XFILLER_12_88 VPWR VGND sg13g2_decap_8
XFILLER_23_498 VPWR VGND sg13g2_decap_8
XFILLER_7_609 VPWR VGND sg13g2_decap_8
XFILLER_2_347 VPWR VGND sg13g2_decap_8
XFILLER_18_237 VPWR VGND sg13g2_decap_8
XFILLER_19_716 VPWR VGND sg13g2_decap_4
XFILLER_33_207 VPWR VGND sg13g2_decap_8
XFILLER_37_63 VPWR VGND sg13g2_decap_8
XFILLER_46_546 VPWR VGND sg13g2_decap_8
XFILLER_14_454 VPWR VGND sg13g2_decap_8
XFILLER_41_273 VPWR VGND sg13g2_decap_8
XFILLER_42_763 VPWR VGND sg13g2_decap_8
X_276_ VPWR _121_ daisychain\[24\] VGND sg13g2_inv_1
X_345_ _110_ net46 _169_ _170_ VPWR VGND sg13g2_a21o_1
X_414_ VGND VPWR net38 daisychain\[29\] _222_ net24 sg13g2_a21oi_1
XFILLER_6_697 VPWR VGND sg13g2_decap_8
XFILLER_6_620 VPWR VGND sg13g2_decap_8
XFILLER_5_130 VPWR VGND sg13g2_decap_8
XFILLER_49_340 VPWR VGND sg13g2_decap_8
XFILLER_37_546 VPWR VGND sg13g2_decap_8
XFILLER_20_402 VPWR VGND sg13g2_decap_8
XFILLER_20_479 VPWR VGND sg13g2_decap_8
XFILLER_32_284 VPWR VGND sg13g2_decap_8
XFILLER_9_480 VPWR VGND sg13g2_decap_8
XFILLER_28_524 VPWR VGND sg13g2_decap_8
XFILLER_11_424 VPWR VGND sg13g2_decap_8
XFILLER_23_295 VPWR VGND sg13g2_decap_8
XFILLER_7_406 VPWR VGND sg13g2_decap_8
XFILLER_23_76 VPWR VGND sg13g2_decap_8
XFILLER_3_634 VPWR VGND sg13g2_decap_8
XFILLER_19_524 VPWR VGND sg13g2_decap_8
XFILLER_2_144 VPWR VGND sg13g2_decap_8
XFILLER_48_84 VPWR VGND sg13g2_decap_8
XFILLER_0_14 VPWR VGND sg13g2_decap_8
XFILLER_27_590 VPWR VGND sg13g2_decap_8
XFILLER_46_343 VPWR VGND sg13g2_decap_8
XFILLER_14_251 VPWR VGND sg13g2_decap_8
XFILLER_42_560 VPWR VGND sg13g2_decap_8
X_259_ VPWR _007_ state\[16\] VGND sg13g2_inv_1
X_328_ net56 VPWR _157_ VGND net45 state\[9\] sg13g2_o21ai_1
XFILLER_9_67 VPWR VGND sg13g2_decap_8
XFILLER_6_494 VPWR VGND sg13g2_decap_8
XFILLER_25_516 VPWR VGND sg13g2_decap_8
XFILLER_37_343 VPWR VGND sg13g2_decap_8
XFILLER_21_700 VPWR VGND sg13g2_decap_4
XFILLER_33_571 VPWR VGND sg13g2_decap_8
XFILLER_20_276 VPWR VGND sg13g2_decap_8
XFILLER_0_637 VPWR VGND sg13g2_decap_8
XFILLER_16_538 VPWR VGND sg13g2_decap_8
XFILLER_18_76 VPWR VGND sg13g2_decap_8
XFILLER_28_376 VPWR VGND sg13g2_decap_8
XFILLER_31_508 VPWR VGND sg13g2_decap_8
XFILLER_43_357 VPWR VGND sg13g2_decap_8
XFILLER_11_221 VPWR VGND sg13g2_decap_8
XFILLER_11_298 VPWR VGND sg13g2_decap_8
XFILLER_12_711 VPWR VGND sg13g2_decap_8
XFILLER_12_788 VPWR VGND sg13g2_decap_4
XFILLER_24_560 VPWR VGND sg13g2_decap_8
XFILLER_34_42 VPWR VGND sg13g2_decap_8
XFILLER_8_704 VPWR VGND sg13g2_decap_8
XFILLER_7_203 VPWR VGND sg13g2_decap_8
XFILLER_3_431 VPWR VGND sg13g2_decap_8
XFILLER_19_321 VPWR VGND sg13g2_decap_8
XFILLER_22_8 VPWR VGND sg13g2_fill_1
XFILLER_46_140 VPWR VGND sg13g2_decap_8
Xclkbuf_4_11_0_clk clknet_0_clk clknet_4_11_0_clk VPWR VGND sg13g2_buf_8
XFILLER_47_630 VPWR VGND sg13g2_decap_8
XFILLER_19_398 VPWR VGND sg13g2_decap_8
XFILLER_22_519 VPWR VGND sg13g2_decap_8
XFILLER_34_357 VPWR VGND sg13g2_decap_8
XFILLER_30_585 VPWR VGND sg13g2_decap_8
XFILLER_7_770 VPWR VGND sg13g2_decap_8
XFILLER_29_118 VPWR VGND sg13g2_decap_8
XFILLER_41_0 VPWR VGND sg13g2_decap_8
XFILLER_6_291 VPWR VGND sg13g2_decap_8
XFILLER_25_346 VPWR VGND sg13g2_decap_8
XFILLER_37_140 VPWR VGND sg13g2_decap_8
XFILLER_38_630 VPWR VGND sg13g2_decap_8
XFILLER_21_563 VPWR VGND sg13g2_decap_8
XFILLER_20_22 VPWR VGND sg13g2_fill_1
XFILLER_20_66 VPWR VGND sg13g2_decap_8
XFILLER_5_718 VPWR VGND sg13g2_decap_8
XFILLER_4_228 VPWR VGND sg13g2_decap_8
XFILLER_0_434 VPWR VGND sg13g2_decap_8
XFILLER_29_20 VPWR VGND sg13g2_decap_8
XFILLER_29_97 VPWR VGND sg13g2_decap_8
XFILLER_48_427 VPWR VGND sg13g2_decap_8
XFILLER_16_335 VPWR VGND sg13g2_decap_8
XFILLER_28_173 VPWR VGND sg13g2_decap_8
XFILLER_31_305 VPWR VGND sg13g2_decap_8
XFILLER_43_154 VPWR VGND sg13g2_decap_8
XFILLER_44_644 VPWR VGND sg13g2_decap_8
XFILLER_45_63 VPWR VGND sg13g2_decap_8
XFILLER_12_585 VPWR VGND sg13g2_decap_8
XFILLER_8_578 VPWR VGND sg13g2_decap_8
XFILLER_8_501 VPWR VGND sg13g2_decap_8
XFILLER_6_46 VPWR VGND sg13g2_decap_8
XFILLER_4_795 VPWR VGND sg13g2_decap_8
XFILLER_13_4 VPWR VGND sg13g2_decap_4
XFILLER_19_195 VPWR VGND sg13g2_decap_8
XFILLER_35_644 VPWR VGND sg13g2_decap_8
XFILLER_39_427 VPWR VGND sg13g2_decap_8
XFILLER_22_316 VPWR VGND sg13g2_decap_8
XFILLER_30_382 VPWR VGND sg13g2_decap_8
XFILLER_34_154 VPWR VGND sg13g2_decap_8
Xheichips25_pudding_74 VPWR VGND uio_oe[3] sg13g2_tiehi
XFILLER_13_349 VPWR VGND sg13g2_decap_8
XFILLER_15_55 VPWR VGND sg13g2_decap_8
XFILLER_26_688 VPWR VGND sg13g2_decap_8
XFILLER_41_658 VPWR VGND sg13g2_decap_8
XFILLER_21_360 VPWR VGND sg13g2_decap_8
XFILLER_31_32 VPWR VGND sg13g2_decap_8
XFILLER_40_168 VPWR VGND sg13g2_decap_8
XFILLER_5_515 VPWR VGND sg13g2_decap_8
XFILLER_0_231 VPWR VGND sg13g2_decap_8
XFILLER_1_721 VPWR VGND sg13g2_decap_8
Xoutput8 net8 uio_out[1] VPWR VGND sg13g2_buf_1
Xoutput21 net21 uo_out[6] VPWR VGND sg13g2_buf_1
Xoutput10 net10 uio_out[3] VPWR VGND sg13g2_buf_1
XFILLER_49_725 VPWR VGND sg13g2_decap_8
XFILLER_16_132 VPWR VGND sg13g2_decap_8
XFILLER_17_622 VPWR VGND sg13g2_decap_8
XFILLER_17_655 VPWR VGND sg13g2_decap_8
XFILLER_1_798 VPWR VGND sg13g2_decap_8
XFILLER_44_441 VPWR VGND sg13g2_decap_8
XFILLER_48_224 VPWR VGND sg13g2_decap_8
XFILLER_12_382 VPWR VGND sg13g2_decap_8
XFILLER_17_666 VPWR VGND sg13g2_decap_4
XFILLER_31_102 VPWR VGND sg13g2_decap_8
XFILLER_31_179 VPWR VGND sg13g2_decap_8
XFILLER_8_375 VPWR VGND sg13g2_decap_8
XFILLER_39_224 VPWR VGND sg13g2_decap_8
XFILLER_4_592 VPWR VGND sg13g2_decap_8
XFILLER_27_419 VPWR VGND sg13g2_decap_8
XFILLER_35_441 VPWR VGND sg13g2_decap_8
XFILLER_48_791 VPWR VGND sg13g2_decap_8
XFILLER_10_319 VPWR VGND sg13g2_decap_8
XFILLER_11_809 VPWR VGND sg13g2_decap_8
XFILLER_2_529 VPWR VGND sg13g2_decap_8
XFILLER_18_419 VPWR VGND sg13g2_decap_8
XFILLER_26_430 VPWR VGND sg13g2_decap_4
XFILLER_39_791 VPWR VGND sg13g2_decap_8
XFILLER_45_238 VPWR VGND sg13g2_decap_8
XFILLER_46_728 VPWR VGND sg13g2_decap_8
XFILLER_13_146 VPWR VGND sg13g2_decap_8
XFILLER_14_636 VPWR VGND sg13g2_decap_8
XFILLER_41_455 VPWR VGND sg13g2_decap_8
XFILLER_42_42 VPWR VGND sg13g2_decap_8
X_292_ net47 _097_ _129_ _130_ VPWR VGND sg13g2_a21o_1
X_361_ _114_ net48 _181_ _182_ VPWR VGND sg13g2_a21o_1
X_430_ _161_ VPWR _074_ VGND net56 _001_ sg13g2_o21ai_1
XFILLER_6_802 VPWR VGND sg13g2_decap_8
XFILLER_5_389 VPWR VGND sg13g2_decap_8
XFILLER_5_312 VPWR VGND sg13g2_decap_8
XFILLER_1_595 VPWR VGND sg13g2_decap_8
XFILLER_3_25 VPWR VGND sg13g2_decap_8
XFILLER_49_522 VPWR VGND sg13g2_decap_8
XFILLER_17_496 VPWR VGND sg13g2_decap_8
XFILLER_36_238 VPWR VGND sg13g2_decap_8
XFILLER_37_728 VPWR VGND sg13g2_decap_8
XFILLER_49_599 VPWR VGND sg13g2_decap_8
XFILLER_32_466 VPWR VGND sg13g2_decap_8
XFILLER_9_662 VPWR VGND sg13g2_decap_8
XFILLER_8_172 VPWR VGND sg13g2_decap_8
XFILLER_27_216 VPWR VGND sg13g2_decap_8
XFILLER_10_116 VPWR VGND sg13g2_decap_8
XFILLER_11_606 VPWR VGND sg13g2_decap_8
XFILLER_23_400 VPWR VGND sg13g2_decap_8
XFILLER_23_477 VPWR VGND sg13g2_decap_8
XFILLER_12_67 VPWR VGND sg13g2_decap_8
XFILLER_3_816 VPWR VGND sg13g2_decap_8
XFILLER_6_109 VPWR VGND sg13g2_decap_8
XFILLER_2_326 VPWR VGND sg13g2_decap_8
XFILLER_18_216 VPWR VGND sg13g2_decap_8
XFILLER_37_42 VPWR VGND sg13g2_decap_8
X_413_ _127_ net40 _220_ _221_ VPWR VGND sg13g2_a21o_1
XFILLER_46_525 VPWR VGND sg13g2_decap_8
XFILLER_14_433 VPWR VGND sg13g2_decap_8
XFILLER_41_252 VPWR VGND sg13g2_decap_8
XFILLER_42_742 VPWR VGND sg13g2_decap_8
X_275_ VPWR _016_ state\[24\] VGND sg13g2_inv_1
X_344_ net57 VPWR _169_ VGND net46 state\[13\] sg13g2_o21ai_1
XFILLER_10_683 VPWR VGND sg13g2_decap_8
XFILLER_45_7 VPWR VGND sg13g2_decap_8
XFILLER_6_676 VPWR VGND sg13g2_decap_8
XFILLER_5_186 VPWR VGND sg13g2_decap_8
XFILLER_1_392 VPWR VGND sg13g2_decap_8
XFILLER_37_525 VPWR VGND sg13g2_decap_8
XFILLER_49_396 VPWR VGND sg13g2_decap_8
XFILLER_17_293 VPWR VGND sg13g2_decap_8
XFILLER_18_783 VPWR VGND sg13g2_fill_1
XFILLER_32_263 VPWR VGND sg13g2_decap_8
XFILLER_20_458 VPWR VGND sg13g2_decap_8
XFILLER_0_819 VPWR VGND sg13g2_decap_4
XFILLER_28_503 VPWR VGND sg13g2_decap_8
XFILLER_43_539 VPWR VGND sg13g2_decap_8
XFILLER_11_403 VPWR VGND sg13g2_decap_8
XFILLER_23_274 VPWR VGND sg13g2_decap_8
XFILLER_2_123 VPWR VGND sg13g2_decap_8
XFILLER_3_613 VPWR VGND sg13g2_decap_8
XFILLER_19_503 VPWR VGND sg13g2_decap_8
XFILLER_46_322 VPWR VGND sg13g2_decap_8
XFILLER_48_63 VPWR VGND sg13g2_decap_8
XFILLER_47_812 VPWR VGND sg13g2_decap_8
XFILLER_14_230 VPWR VGND sg13g2_decap_8
XFILLER_15_753 VPWR VGND sg13g2_decap_4
XFILLER_34_539 VPWR VGND sg13g2_decap_8
XFILLER_46_399 VPWR VGND sg13g2_decap_8
XFILLER_10_480 VPWR VGND sg13g2_decap_8
X_258_ VPWR _112_ daisychain\[15\] VGND sg13g2_inv_1
X_327_ _040_ _155_ _156_ net28 _105_ VPWR VGND sg13g2_a22oi_1
XFILLER_9_46 VPWR VGND sg13g2_decap_8
XFILLER_2_690 VPWR VGND sg13g2_decap_8
XFILLER_6_473 VPWR VGND sg13g2_decap_8
XFILLER_18_580 VPWR VGND sg13g2_decap_8
XFILLER_37_322 VPWR VGND sg13g2_decap_8
XFILLER_37_399 VPWR VGND sg13g2_decap_8
XFILLER_38_812 VPWR VGND sg13g2_decap_8
XFILLER_49_193 VPWR VGND sg13g2_decap_8
XFILLER_20_255 VPWR VGND sg13g2_decap_8
XFILLER_21_712 VPWR VGND sg13g2_fill_2
XFILLER_33_550 VPWR VGND sg13g2_decap_8
XFILLER_0_616 VPWR VGND sg13g2_decap_8
XFILLER_48_609 VPWR VGND sg13g2_decap_8
XFILLER_47_119 VPWR VGND sg13g2_decap_8
XFILLER_16_517 VPWR VGND sg13g2_decap_8
XFILLER_18_55 VPWR VGND sg13g2_decap_8
XFILLER_28_355 VPWR VGND sg13g2_decap_8
XFILLER_34_21 VPWR VGND sg13g2_decap_8
XFILLER_43_336 VPWR VGND sg13g2_decap_8
XFILLER_11_200 VPWR VGND sg13g2_decap_8
XFILLER_11_277 VPWR VGND sg13g2_decap_8
XFILLER_12_767 VPWR VGND sg13g2_decap_8
XFILLER_34_98 VPWR VGND sg13g2_decap_8
XFILLER_7_259 VPWR VGND sg13g2_decap_8
XFILLER_1_0 VPWR VGND sg13g2_decap_8
XFILLER_39_609 VPWR VGND sg13g2_decap_8
XFILLER_3_410 VPWR VGND sg13g2_decap_8
XFILLER_3_487 VPWR VGND sg13g2_decap_8
XFILLER_15_8 VPWR VGND sg13g2_fill_1
XFILLER_19_300 VPWR VGND sg13g2_decap_8
XFILLER_19_377 VPWR VGND sg13g2_decap_8
XFILLER_38_119 VPWR VGND sg13g2_decap_8
XFILLER_47_686 VPWR VGND sg13g2_decap_8
XFILLER_15_594 VPWR VGND sg13g2_decap_8
XFILLER_30_564 VPWR VGND sg13g2_decap_8
XFILLER_34_336 VPWR VGND sg13g2_decap_8
XFILLER_46_196 VPWR VGND sg13g2_decap_8
XFILLER_6_270 VPWR VGND sg13g2_decap_8
XFILLER_34_0 VPWR VGND sg13g2_decap_8
XFILLER_1_91 VPWR VGND sg13g2_decap_8
XFILLER_25_325 VPWR VGND sg13g2_decap_8
XFILLER_37_196 VPWR VGND sg13g2_decap_8
XFILLER_38_686 VPWR VGND sg13g2_decap_8
XFILLER_21_542 VPWR VGND sg13g2_decap_8
XFILLER_0_413 VPWR VGND sg13g2_decap_8
XFILLER_20_45 VPWR VGND sg13g2_decap_8
XFILLER_4_207 VPWR VGND sg13g2_decap_8
XFILLER_16_314 VPWR VGND sg13g2_decap_8
XFILLER_28_152 VPWR VGND sg13g2_decap_8
XFILLER_29_76 VPWR VGND sg13g2_decap_8
XFILLER_44_623 VPWR VGND sg13g2_decap_8
XFILLER_48_406 VPWR VGND sg13g2_decap_8
XFILLER_12_564 VPWR VGND sg13g2_decap_8
XFILLER_43_133 VPWR VGND sg13g2_decap_8
XFILLER_45_42 VPWR VGND sg13g2_decap_8
XFILLER_8_557 VPWR VGND sg13g2_decap_8
XFILLER_6_25 VPWR VGND sg13g2_decap_8
XFILLER_39_406 VPWR VGND sg13g2_decap_8
XFILLER_3_284 VPWR VGND sg13g2_decap_8
XFILLER_4_774 VPWR VGND sg13g2_decap_8
XFILLER_19_174 VPWR VGND sg13g2_decap_8
XFILLER_34_133 VPWR VGND sg13g2_decap_8
XFILLER_35_623 VPWR VGND sg13g2_decap_8
XFILLER_47_483 VPWR VGND sg13g2_decap_8
XFILLER_15_391 VPWR VGND sg13g2_decap_8
XFILLER_30_361 VPWR VGND sg13g2_decap_8
Xheichips25_pudding_75 VPWR VGND uio_oe[4] sg13g2_tiehi
XFILLER_38_483 VPWR VGND sg13g2_decap_8
XFILLER_13_328 VPWR VGND sg13g2_decap_8
XFILLER_15_34 VPWR VGND sg13g2_decap_8
XFILLER_25_199 VPWR VGND sg13g2_decap_8
XFILLER_26_634 VPWR VGND sg13g2_decap_4
XFILLER_26_667 VPWR VGND sg13g2_decap_8
XFILLER_40_147 VPWR VGND sg13g2_decap_8
XFILLER_41_637 VPWR VGND sg13g2_decap_8
XFILLER_31_11 VPWR VGND sg13g2_decap_8
XFILLER_31_88 VPWR VGND sg13g2_decap_8
Xclkbuf_4_10_0_clk clknet_0_clk clknet_4_10_0_clk VPWR VGND sg13g2_buf_8
XFILLER_0_210 VPWR VGND sg13g2_decap_8
XFILLER_0_287 VPWR VGND sg13g2_decap_8
XFILLER_1_700 VPWR VGND sg13g2_decap_8
XFILLER_1_777 VPWR VGND sg13g2_decap_8
Xoutput9 net9 uio_out[2] VPWR VGND sg13g2_buf_1
Xoutput22 net22 uo_out[7] VPWR VGND sg13g2_buf_1
Xoutput11 net11 uio_out[4] VPWR VGND sg13g2_buf_1
XFILLER_49_704 VPWR VGND sg13g2_decap_8
XFILLER_48_203 VPWR VGND sg13g2_decap_8
XFILLER_16_111 VPWR VGND sg13g2_decap_8
XFILLER_17_601 VPWR VGND sg13g2_decap_8
XFILLER_29_461 VPWR VGND sg13g2_decap_8
XFILLER_44_420 VPWR VGND sg13g2_decap_8
XFILLER_12_361 VPWR VGND sg13g2_decap_8
XFILLER_16_188 VPWR VGND sg13g2_decap_8
XFILLER_31_158 VPWR VGND sg13g2_decap_8
XFILLER_32_648 VPWR VGND sg13g2_decap_8
XFILLER_44_497 VPWR VGND sg13g2_decap_8
XFILLER_8_354 VPWR VGND sg13g2_decap_8
XFILLER_4_571 VPWR VGND sg13g2_decap_8
XFILLER_39_203 VPWR VGND sg13g2_decap_8
XFILLER_48_770 VPWR VGND sg13g2_decap_8
XFILLER_35_420 VPWR VGND sg13g2_decap_8
XFILLER_35_497 VPWR VGND sg13g2_decap_8
XFILLER_47_280 VPWR VGND sg13g2_decap_8
XFILLER_22_169 VPWR VGND sg13g2_decap_8
XFILLER_31_692 VPWR VGND sg13g2_fill_2
XFILLER_2_508 VPWR VGND sg13g2_decap_8
XFILLER_26_11 VPWR VGND sg13g2_decap_8
XFILLER_38_280 VPWR VGND sg13g2_decap_8
XFILLER_39_770 VPWR VGND sg13g2_decap_8
XFILLER_45_217 VPWR VGND sg13g2_decap_8
XFILLER_46_707 VPWR VGND sg13g2_decap_8
XFILLER_13_125 VPWR VGND sg13g2_decap_8
XFILLER_14_615 VPWR VGND sg13g2_decap_8
XFILLER_41_434 VPWR VGND sg13g2_decap_8
XFILLER_42_21 VPWR VGND sg13g2_decap_8
X_291_ net58 VPWR _129_ VGND state\[0\] net47 sg13g2_o21ai_1
X_360_ net59 VPWR _181_ VGND net48 state\[17\] sg13g2_o21ai_1
XFILLER_42_98 VPWR VGND sg13g2_decap_8
XFILLER_5_368 VPWR VGND sg13g2_decap_8
XFILLER_1_574 VPWR VGND sg13g2_decap_8
XFILLER_36_217 VPWR VGND sg13g2_decap_8
XFILLER_37_707 VPWR VGND sg13g2_decap_8
XFILLER_49_578 VPWR VGND sg13g2_decap_8
XFILLER_49_501 VPWR VGND sg13g2_decap_8
XFILLER_17_475 VPWR VGND sg13g2_decap_8
XFILLER_32_445 VPWR VGND sg13g2_decap_8
XFILLER_44_294 VPWR VGND sg13g2_decap_8
XFILLER_45_784 VPWR VGND sg13g2_decap_8
XFILLER_13_692 VPWR VGND sg13g2_decap_8
X_489_ net70 VGND VPWR _069_ state\[5\] clknet_4_12_0_clk sg13g2_dfrbpq_1
XFILLER_9_641 VPWR VGND sg13g2_decap_8
XFILLER_8_151 VPWR VGND sg13g2_decap_8
XFILLER_28_729 VPWR VGND sg13g2_decap_8
XFILLER_23_456 VPWR VGND sg13g2_decap_8
XFILLER_35_294 VPWR VGND sg13g2_decap_8
XFILLER_36_784 VPWR VGND sg13g2_decap_8
XFILLER_12_46 VPWR VGND sg13g2_decap_8
XFILLER_2_305 VPWR VGND sg13g2_decap_8
XFILLER_37_21 VPWR VGND sg13g2_decap_8
XFILLER_46_504 VPWR VGND sg13g2_decap_8
XFILLER_14_412 VPWR VGND sg13g2_decap_8
XFILLER_26_283 VPWR VGND sg13g2_decap_8
XFILLER_37_98 VPWR VGND sg13g2_decap_8
XFILLER_41_231 VPWR VGND sg13g2_decap_8
XFILLER_42_721 VPWR VGND sg13g2_decap_8
X_412_ net51 VPWR _220_ VGND net40 state\[30\] sg13g2_o21ai_1
XFILLER_10_662 VPWR VGND sg13g2_decap_8
XFILLER_14_489 VPWR VGND sg13g2_decap_8
XFILLER_42_798 VPWR VGND sg13g2_decap_8
X_274_ VPWR _120_ daisychain\[23\] VGND sg13g2_inv_1
X_343_ _044_ _167_ _168_ net29 _109_ VPWR VGND sg13g2_a22oi_1
XFILLER_1_371 VPWR VGND sg13g2_decap_8
XFILLER_38_7 VPWR VGND sg13g2_decap_8
XFILLER_6_655 VPWR VGND sg13g2_decap_8
XFILLER_5_165 VPWR VGND sg13g2_decap_8
XFILLER_18_751 VPWR VGND sg13g2_decap_8
XFILLER_37_504 VPWR VGND sg13g2_decap_8
XFILLER_49_375 VPWR VGND sg13g2_decap_8
XFILLER_17_272 VPWR VGND sg13g2_decap_8
XFILLER_20_437 VPWR VGND sg13g2_decap_8
XFILLER_32_242 VPWR VGND sg13g2_decap_8
XFILLER_33_787 VPWR VGND sg13g2_fill_1
XFILLER_45_581 VPWR VGND sg13g2_decap_8
XFILLER_15_209 VPWR VGND sg13g2_decap_8
XFILLER_24_710 VPWR VGND sg13g2_decap_4
XFILLER_24_732 VPWR VGND sg13g2_decap_8
XFILLER_24_743 VPWR VGND sg13g2_fill_1
XFILLER_28_559 VPWR VGND sg13g2_decap_8
XFILLER_36_581 VPWR VGND sg13g2_decap_8
XFILLER_43_518 VPWR VGND sg13g2_decap_8
XFILLER_11_459 VPWR VGND sg13g2_decap_8
XFILLER_23_253 VPWR VGND sg13g2_decap_8
XFILLER_23_34 VPWR VGND sg13g2_fill_1
XFILLER_2_102 VPWR VGND sg13g2_decap_8
XFILLER_2_179 VPWR VGND sg13g2_decap_8
XFILLER_3_4 VPWR VGND sg13g2_decap_8
XFILLER_3_669 VPWR VGND sg13g2_decap_8
XFILLER_0_49 VPWR VGND sg13g2_decap_8
XFILLER_19_559 VPWR VGND sg13g2_decap_8
XFILLER_46_301 VPWR VGND sg13g2_decap_8
XFILLER_48_42 VPWR VGND sg13g2_decap_8
XFILLER_14_286 VPWR VGND sg13g2_decap_8
XFILLER_30_757 VPWR VGND sg13g2_decap_8
XFILLER_34_518 VPWR VGND sg13g2_decap_8
XFILLER_42_595 VPWR VGND sg13g2_decap_8
XFILLER_46_378 VPWR VGND sg13g2_decap_8
X_326_ VGND VPWR net34 daisychain\[7\] _156_ net26 sg13g2_a21oi_1
XFILLER_9_25 VPWR VGND sg13g2_decap_8
X_257_ VPWR _006_ state\[15\] VGND sg13g2_inv_1
XFILLER_6_452 VPWR VGND sg13g2_decap_8
XFILLER_37_301 VPWR VGND sg13g2_decap_8
XFILLER_37_378 VPWR VGND sg13g2_decap_8
XFILLER_49_172 VPWR VGND sg13g2_decap_8
XFILLER_20_234 VPWR VGND sg13g2_decap_8
XFILLER_18_34 VPWR VGND sg13g2_decap_8
XFILLER_28_334 VPWR VGND sg13g2_decap_8
XFILLER_44_805 VPWR VGND sg13g2_decap_8
XFILLER_12_746 VPWR VGND sg13g2_decap_8
XFILLER_24_595 VPWR VGND sg13g2_fill_2
XFILLER_34_77 VPWR VGND sg13g2_decap_8
XFILLER_43_315 VPWR VGND sg13g2_decap_8
XFILLER_11_256 VPWR VGND sg13g2_decap_8
XFILLER_8_739 VPWR VGND sg13g2_decap_8
XFILLER_7_238 VPWR VGND sg13g2_decap_8
XFILLER_3_466 VPWR VGND sg13g2_decap_8
XFILLER_19_356 VPWR VGND sg13g2_decap_8
XFILLER_34_315 VPWR VGND sg13g2_decap_8
XFILLER_46_175 VPWR VGND sg13g2_decap_8
XFILLER_47_665 VPWR VGND sg13g2_decap_8
XFILLER_15_573 VPWR VGND sg13g2_decap_8
XFILLER_30_543 VPWR VGND sg13g2_decap_8
XFILLER_42_392 VPWR VGND sg13g2_decap_8
X_309_ _101_ net42 _142_ _143_ VPWR VGND sg13g2_a21o_1
XFILLER_27_0 VPWR VGND sg13g2_decap_8
XFILLER_38_665 VPWR VGND sg13g2_decap_8
XFILLER_1_70 VPWR VGND sg13g2_decap_8
XFILLER_21_510 VPWR VGND sg13g2_decap_8
XFILLER_21_521 VPWR VGND sg13g2_fill_1
XFILLER_25_304 VPWR VGND sg13g2_decap_8
XFILLER_37_175 VPWR VGND sg13g2_decap_8
XFILLER_40_329 VPWR VGND sg13g2_decap_8
XFILLER_41_819 VPWR VGND sg13g2_decap_4
XFILLER_20_13 VPWR VGND sg13g2_decap_8
XFILLER_0_469 VPWR VGND sg13g2_decap_8
XFILLER_28_131 VPWR VGND sg13g2_decap_8
XFILLER_29_55 VPWR VGND sg13g2_decap_8
XFILLER_29_665 VPWR VGND sg13g2_fill_1
XFILLER_43_112 VPWR VGND sg13g2_decap_8
XFILLER_44_602 VPWR VGND sg13g2_decap_8
XFILLER_45_21 VPWR VGND sg13g2_decap_8
Xdigitalen.g\[2\].u.inv1 VPWR digitalen.g\[2\].u.OUTN net6 VGND sg13g2_inv_1
XFILLER_12_543 VPWR VGND sg13g2_decap_8
XFILLER_24_381 VPWR VGND sg13g2_decap_8
XFILLER_43_189 VPWR VGND sg13g2_decap_8
XFILLER_44_679 VPWR VGND sg13g2_decap_8
XFILLER_45_98 VPWR VGND sg13g2_decap_8
XFILLER_8_536 VPWR VGND sg13g2_decap_8
XFILLER_3_263 VPWR VGND sg13g2_decap_8
XFILLER_4_753 VPWR VGND sg13g2_decap_8
XFILLER_15_370 VPWR VGND sg13g2_decap_8
XFILLER_19_153 VPWR VGND sg13g2_decap_8
XFILLER_34_112 VPWR VGND sg13g2_decap_8
XFILLER_34_189 VPWR VGND sg13g2_decap_8
XFILLER_35_602 VPWR VGND sg13g2_decap_8
XFILLER_35_679 VPWR VGND sg13g2_decap_8
XFILLER_47_462 VPWR VGND sg13g2_decap_8
XFILLER_30_340 VPWR VGND sg13g2_decap_8
Xheichips25_pudding_76 VPWR VGND uio_oe[5] sg13g2_tiehi
XFILLER_38_462 VPWR VGND sg13g2_decap_8
XFILLER_13_307 VPWR VGND sg13g2_decap_8
XFILLER_15_13 VPWR VGND sg13g2_decap_8
XFILLER_25_178 VPWR VGND sg13g2_decap_8
XFILLER_40_126 VPWR VGND sg13g2_decap_8
XFILLER_41_616 VPWR VGND sg13g2_decap_8
XFILLER_21_395 VPWR VGND sg13g2_decap_8
XFILLER_31_67 VPWR VGND sg13g2_decap_8