*SPEF "ieee 1481-1999"
*DESIGN "heichips25_pudding"
*DATE "14:06:01 Thursday March 12, 2026"
*VENDOR "The OpenROAD Project"
*PROGRAM "OpenROAD"
*VERSION "dfc4f595dfb2e1c346492ff1f0274abb28725acf"
*DESIGN_FLOW "NAME_SCOPE LOCAL" "PIN_CAP NONE"
*DIVIDER /
*DELIMITER :
*BUS_DELIMITER []
*T_UNIT 1 NS
*C_UNIT 1 PF
*R_UNIT 1 OHM
*L_UNIT 1 HENRY

*NAME_MAP
*3 clk
*4 ena
*5 i_in
*6 i_out
*7 rst_n
*8 ui_in[0]
*9 ui_in[1]
*10 ui_in[2]
*11 ui_in[3]
*12 ui_in[4]
*13 ui_in[5]
*14 ui_in[6]
*15 ui_in[7]
*16 uio_in[0]
*17 uio_in[1]
*18 uio_in[2]
*19 uio_in[3]
*20 uio_in[4]
*21 uio_in[5]
*22 uio_in[6]
*23 uio_in[7]
*24 net
*25 net72
*26 net73
*27 net74
*28 net75
*29 net76
*30 net77
*31 net78
*32 uio_out[0]
*33 uio_out[1]
*34 uio_out[2]
*35 uio_out[3]
*36 uio_out[4]
*37 uio_out[5]
*38 uio_out[6]
*39 uio_out[7]
*40 uo_out[0]
*41 uo_out[1]
*42 uo_out[2]
*43 uo_out[3]
*44 uo_out[4]
*45 uo_out[5]
*46 uo_out[6]
*47 uo_out[7]
*48 _000_
*49 _001_
*50 _002_
*51 _003_
*52 _004_
*53 _005_
*54 _006_
*55 _007_
*56 _008_
*57 _009_
*58 _010_
*59 _011_
*60 _012_
*61 _013_
*62 _014_
*63 _015_
*64 _016_
*65 _017_
*66 _018_
*67 _019_
*68 _020_
*69 _021_
*70 _022_
*71 _023_
*72 _024_
*73 _025_
*74 _026_
*75 _027_
*76 _028_
*77 _029_
*78 _030_
*79 _031_
*80 _032_
*81 _033_
*82 _034_
*83 _035_
*84 _036_
*85 _037_
*86 _038_
*87 _039_
*88 _040_
*89 _041_
*90 _042_
*91 _043_
*92 _044_
*93 _045_
*94 _046_
*95 _047_
*96 _048_
*97 _049_
*98 _050_
*99 _051_
*100 _052_
*101 _053_
*102 _054_
*103 _055_
*104 _056_
*105 _057_
*106 _058_
*107 _059_
*108 _060_
*109 _061_
*110 _062_
*111 _063_
*112 _064_
*113 _065_
*114 _066_
*115 _067_
*116 _068_
*117 _069_
*118 _070_
*119 _071_
*120 _072_
*121 _073_
*122 _074_
*123 _075_
*124 _076_
*125 _077_
*126 _078_
*127 _079_
*128 _080_
*129 _081_
*130 _082_
*131 _083_
*132 _084_
*133 _085_
*134 _086_
*135 _087_
*136 _088_
*137 _089_
*138 _090_
*139 _091_
*140 _092_
*141 _093_
*142 _094_
*143 _095_
*144 _096_
*145 _097_
*146 _098_
*147 _099_
*148 _100_
*149 _101_
*150 _102_
*151 _103_
*152 _104_
*153 _105_
*154 _106_
*155 _107_
*156 _108_
*157 _109_
*158 _110_
*159 _111_
*160 _112_
*161 _113_
*162 _114_
*163 _115_
*164 _116_
*165 _117_
*166 _118_
*167 _119_
*168 _120_
*169 _121_
*170 _122_
*171 _123_
*172 _124_
*173 _125_
*174 _126_
*175 _127_
*176 _128_
*177 _129_
*178 _130_
*179 _131_
*180 _132_
*181 _133_
*182 _134_
*183 _135_
*184 _136_
*185 _137_
*186 _138_
*187 _139_
*188 _140_
*189 _141_
*190 _142_
*191 _143_
*192 _144_
*193 _145_
*194 _146_
*195 _147_
*196 _148_
*197 _149_
*198 _150_
*199 _151_
*200 _152_
*201 _153_
*202 _154_
*203 _155_
*204 _156_
*205 _157_
*206 _158_
*207 _159_
*208 _160_
*209 _161_
*210 _162_
*211 _163_
*212 _164_
*213 _165_
*214 _166_
*215 _167_
*216 _168_
*217 _169_
*218 _170_
*219 _171_
*220 _172_
*221 _173_
*222 _174_
*223 _175_
*224 _176_
*225 _177_
*226 _178_
*227 _179_
*228 _180_
*229 _181_
*230 _182_
*231 _183_
*232 _184_
*233 _185_
*234 _186_
*235 _187_
*236 _188_
*237 _189_
*238 _190_
*239 _191_
*240 _192_
*241 _193_
*242 _194_
*243 _195_
*244 _196_
*245 _197_
*246 _198_
*247 _199_
*248 _200_
*249 _201_
*250 _202_
*251 _203_
*252 _204_
*253 _205_
*254 _206_
*255 _207_
*256 _208_
*257 _209_
*258 _210_
*259 _211_
*260 _212_
*261 _213_
*262 _214_
*263 _215_
*264 _216_
*265 _217_
*266 _218_
*267 _219_
*268 _220_
*269 _221_
*270 _222_
*271 _223_
*272 _224_
*273 _225_
*274 bias\[0\]
*275 bias\[1\]
*276 clknet_0_clk
*277 clknet_4_0_0_clk
*278 clknet_4_10_0_clk
*279 clknet_4_11_0_clk
*280 clknet_4_12_0_clk
*281 clknet_4_13_0_clk
*282 clknet_4_14_0_clk
*283 clknet_4_15_0_clk
*284 clknet_4_1_0_clk
*285 clknet_4_2_0_clk
*286 clknet_4_3_0_clk
*287 clknet_4_4_0_clk
*288 clknet_4_5_0_clk
*289 clknet_4_6_0_clk
*290 clknet_4_7_0_clk
*291 clknet_4_8_0_clk
*292 clknet_4_9_0_clk
*293 dacout
*294 daisychain\[0\]
*295 daisychain\[10\]
*296 daisychain\[11\]
*297 daisychain\[12\]
*298 daisychain\[13\]
*299 daisychain\[14\]
*300 daisychain\[15\]
*301 daisychain\[16\]
*302 daisychain\[17\]
*303 daisychain\[18\]
*304 daisychain\[19\]
*305 daisychain\[1\]
*306 daisychain\[20\]
*307 daisychain\[21\]
*308 daisychain\[22\]
*309 daisychain\[23\]
*310 daisychain\[24\]
*311 daisychain\[25\]
*312 daisychain\[26\]
*313 daisychain\[27\]
*314 daisychain\[28\]
*315 daisychain\[29\]
*316 daisychain\[2\]
*317 daisychain\[30\]
*318 daisychain\[31\]
*319 daisychain\[3\]
*320 daisychain\[4\]
*321 daisychain\[5\]
*322 daisychain\[6\]
*323 daisychain\[7\]
*324 daisychain\[8\]
*325 daisychain\[9\]
*326 digitalen\.g\[0\]\.u\.OUTN
*327 digitalen\.g\[0\]\.u\.OUTP
*328 digitalen\.g\[1\]\.u\.OUTN
*329 digitalen\.g\[1\]\.u\.OUTP
*330 digitalen\.g\[2\]\.u\.OUTN
*331 digitalen\.g\[2\]\.u\.OUTP
*332 digitalen\.g\[3\]\.u\.OUTN
*333 digitalen\.g\[3\]\.u\.OUTP
*334 iref\[0\]
*335 iref\[1\]
*336 net1
*337 net10
*338 net11
*339 net12
*340 net13
*341 net14
*342 net15
*343 net16
*344 net17
*345 net18
*346 net19
*347 net2
*348 net20
*349 net21
*350 net22
*351 net23
*352 net24
*353 net25
*354 net26
*355 net27
*356 net28
*357 net29
*358 net3
*359 net30
*360 net31
*361 net32
*362 net33
*363 net34
*364 net35
*365 net36
*366 net37
*367 net38
*368 net39
*369 net4
*370 net40
*371 net41
*372 net42
*373 net43
*374 net44
*375 net45
*376 net46
*377 net47
*378 net48
*379 net49
*380 net5
*381 net50
*382 net51
*383 net52
*384 net53
*385 net54
*386 net55
*387 net56
*388 net57
*389 net58
*390 net59
*391 net6
*392 net60
*393 net61
*394 net62
*395 net63
*396 net64
*397 net65
*398 net66
*399 net67
*400 net68
*401 net69
*402 net7
*403 net70
*404 net71
*405 net8
*406 net9
*407 state\[0\]
*408 state\[10\]
*409 state\[11\]
*410 state\[12\]
*411 state\[13\]
*412 state\[14\]
*413 state\[15\]
*414 state\[16\]
*415 state\[17\]
*416 state\[18\]
*417 state\[19\]
*418 state\[1\]
*419 state\[20\]
*420 state\[21\]
*421 state\[22\]
*422 state\[23\]
*423 state\[24\]
*424 state\[25\]
*425 state\[26\]
*426 state\[27\]
*427 state\[28\]
*428 state\[29\]
*429 state\[2\]
*430 state\[30\]
*431 state\[31\]
*432 state\[3\]
*433 state\[4\]
*434 state\[5\]
*435 state\[6\]
*436 state\[7\]
*437 state\[8\]
*438 state\[9\]
*439 vdda\[0\]
*440 vdda\[1\]
*441 FILLER_0_0
*442 FILLER_0_105
*443 FILLER_0_112
*444 FILLER_0_119
*445 FILLER_0_126
*446 FILLER_0_133
*447 FILLER_0_14
*448 FILLER_0_140
*449 FILLER_0_147
*450 FILLER_0_154
*451 FILLER_0_161
*452 FILLER_0_168
*453 FILLER_0_175
*454 FILLER_0_182
*455 FILLER_0_189
*456 FILLER_0_196
*457 FILLER_0_203
*458 FILLER_0_21
*459 FILLER_0_210
*460 FILLER_0_217
*461 FILLER_0_224
*462 FILLER_0_231
*463 FILLER_0_238
*464 FILLER_0_245
*465 FILLER_0_252
*466 FILLER_0_259
*467 FILLER_0_266
*468 FILLER_0_273
*469 FILLER_0_28
*470 FILLER_0_280
*471 FILLER_0_287
*472 FILLER_0_294
*473 FILLER_0_301
*474 FILLER_0_308
*475 FILLER_0_315
*476 FILLER_0_322
*477 FILLER_0_329
*478 FILLER_0_336
*479 FILLER_0_343
*480 FILLER_0_35
*481 FILLER_0_350
*482 FILLER_0_357
*483 FILLER_0_364
*484 FILLER_0_371
*485 FILLER_0_378
*486 FILLER_0_385
*487 FILLER_0_392
*488 FILLER_0_399
*489 FILLER_0_406
*490 FILLER_0_413
*491 FILLER_0_42
*492 FILLER_0_420
*493 FILLER_0_427
*494 FILLER_0_434
*495 FILLER_0_441
*496 FILLER_0_448
*497 FILLER_0_455
*498 FILLER_0_462
*499 FILLER_0_469
*500 FILLER_0_476
*501 FILLER_0_483
*502 FILLER_0_49
*503 FILLER_0_490
*504 FILLER_0_497
*505 FILLER_0_504
*506 FILLER_0_511
*507 FILLER_0_518
*508 FILLER_0_525
*509 FILLER_0_532
*510 FILLER_0_539
*511 FILLER_0_546
*512 FILLER_0_553
*513 FILLER_0_56
*514 FILLER_0_560
*515 FILLER_0_567
*516 FILLER_0_574
*517 FILLER_0_581
*518 FILLER_0_588
*519 FILLER_0_595
*520 FILLER_0_602
*521 FILLER_0_609
*522 FILLER_0_616
*523 FILLER_0_623
*524 FILLER_0_63
*525 FILLER_0_630
*526 FILLER_0_637
*527 FILLER_0_644
*528 FILLER_0_651
*529 FILLER_0_658
*530 FILLER_0_665
*531 FILLER_0_672
*532 FILLER_0_679
*533 FILLER_0_686
*534 FILLER_0_693
*535 FILLER_0_7
*536 FILLER_0_70
*537 FILLER_0_700
*538 FILLER_0_707
*539 FILLER_0_714
*540 FILLER_0_721
*541 FILLER_0_728
*542 FILLER_0_735
*543 FILLER_0_742
*544 FILLER_0_749
*545 FILLER_0_756
*546 FILLER_0_763
*547 FILLER_0_77
*548 FILLER_0_770
*549 FILLER_0_777
*550 FILLER_0_784
*551 FILLER_0_791
*552 FILLER_0_798
*553 FILLER_0_805
*554 FILLER_0_812
*555 FILLER_0_819
*556 FILLER_0_84
*557 FILLER_0_91
*558 FILLER_0_98
*559 FILLER_10_102
*560 FILLER_10_109
*561 FILLER_10_11
*562 FILLER_10_116
*563 FILLER_10_123
*564 FILLER_10_130
*565 FILLER_10_137
*566 FILLER_10_144
*567 FILLER_10_151
*568 FILLER_10_158
*569 FILLER_10_165
*570 FILLER_10_172
*571 FILLER_10_179
*572 FILLER_10_18
*573 FILLER_10_186
*574 FILLER_10_193
*575 FILLER_10_200
*576 FILLER_10_207
*577 FILLER_10_214
*578 FILLER_10_221
*579 FILLER_10_228
*580 FILLER_10_235
*581 FILLER_10_242
*582 FILLER_10_249
*583 FILLER_10_25
*584 FILLER_10_256
*585 FILLER_10_263
*586 FILLER_10_270
*587 FILLER_10_277
*588 FILLER_10_284
*589 FILLER_10_291
*590 FILLER_10_298
*591 FILLER_10_305
*592 FILLER_10_312
*593 FILLER_10_319
*594 FILLER_10_32
*595 FILLER_10_326
*596 FILLER_10_333
*597 FILLER_10_340
*598 FILLER_10_347
*599 FILLER_10_354
*600 FILLER_10_361
*601 FILLER_10_368
*602 FILLER_10_375
*603 FILLER_10_382
*604 FILLER_10_389
*605 FILLER_10_39
*606 FILLER_10_396
*607 FILLER_10_4
*608 FILLER_10_403
*609 FILLER_10_410
*610 FILLER_10_417
*611 FILLER_10_424
*612 FILLER_10_431
*613 FILLER_10_438
*614 FILLER_10_445
*615 FILLER_10_452
*616 FILLER_10_459
*617 FILLER_10_46
*618 FILLER_10_466
*619 FILLER_10_473
*620 FILLER_10_480
*621 FILLER_10_487
*622 FILLER_10_494
*623 FILLER_10_501
*624 FILLER_10_508
*625 FILLER_10_515
*626 FILLER_10_522
*627 FILLER_10_529
*628 FILLER_10_53
*629 FILLER_10_536
*630 FILLER_10_543
*631 FILLER_10_550
*632 FILLER_10_557
*633 FILLER_10_564
*634 FILLER_10_571
*635 FILLER_10_578
*636 FILLER_10_585
*637 FILLER_10_592
*638 FILLER_10_599
*639 FILLER_10_60
*640 FILLER_10_606
*641 FILLER_10_613
*642 FILLER_10_620
*643 FILLER_10_627
*644 FILLER_10_634
*645 FILLER_10_641
*646 FILLER_10_648
*647 FILLER_10_655
*648 FILLER_10_662
*649 FILLER_10_669
*650 FILLER_10_67
*651 FILLER_10_676
*652 FILLER_10_683
*653 FILLER_10_690
*654 FILLER_10_697
*655 FILLER_10_704
*656 FILLER_10_711
*657 FILLER_10_718
*658 FILLER_10_725
*659 FILLER_10_732
*660 FILLER_10_739
*661 FILLER_10_74
*662 FILLER_10_746
*663 FILLER_10_753
*664 FILLER_10_760
*665 FILLER_10_767
*666 FILLER_10_774
*667 FILLER_10_781
*668 FILLER_10_788
*669 FILLER_10_795
*670 FILLER_10_802
*671 FILLER_10_809
*672 FILLER_10_81
*673 FILLER_10_816
*674 FILLER_10_88
*675 FILLER_10_95
*676 FILLER_11_102
*677 FILLER_11_109
*678 FILLER_11_11
*679 FILLER_11_116
*680 FILLER_11_123
*681 FILLER_11_130
*682 FILLER_11_137
*683 FILLER_11_144
*684 FILLER_11_151
*685 FILLER_11_158
*686 FILLER_11_165
*687 FILLER_11_172
*688 FILLER_11_179
*689 FILLER_11_18
*690 FILLER_11_186
*691 FILLER_11_193
*692 FILLER_11_200
*693 FILLER_11_207
*694 FILLER_11_214
*695 FILLER_11_221
*696 FILLER_11_228
*697 FILLER_11_235
*698 FILLER_11_242
*699 FILLER_11_249
*700 FILLER_11_25
*701 FILLER_11_256
*702 FILLER_11_263
*703 FILLER_11_270
*704 FILLER_11_277
*705 FILLER_11_284
*706 FILLER_11_291
*707 FILLER_11_298
*708 FILLER_11_305
*709 FILLER_11_312
*710 FILLER_11_319
*711 FILLER_11_32
*712 FILLER_11_326
*713 FILLER_11_333
*714 FILLER_11_340
*715 FILLER_11_347
*716 FILLER_11_354
*717 FILLER_11_361
*718 FILLER_11_368
*719 FILLER_11_375
*720 FILLER_11_382
*721 FILLER_11_389
*722 FILLER_11_39
*723 FILLER_11_396
*724 FILLER_11_4
*725 FILLER_11_403
*726 FILLER_11_410
*727 FILLER_11_417
*728 FILLER_11_424
*729 FILLER_11_431
*730 FILLER_11_438
*731 FILLER_11_445
*732 FILLER_11_452
*733 FILLER_11_459
*734 FILLER_11_46
*735 FILLER_11_466
*736 FILLER_11_473
*737 FILLER_11_480
*738 FILLER_11_487
*739 FILLER_11_494
*740 FILLER_11_501
*741 FILLER_11_508
*742 FILLER_11_515
*743 FILLER_11_522
*744 FILLER_11_529
*745 FILLER_11_53
*746 FILLER_11_536
*747 FILLER_11_543
*748 FILLER_11_550
*749 FILLER_11_557
*750 FILLER_11_564
*751 FILLER_11_571
*752 FILLER_11_578
*753 FILLER_11_585
*754 FILLER_11_592
*755 FILLER_11_599
*756 FILLER_11_60
*757 FILLER_11_606
*758 FILLER_11_613
*759 FILLER_11_620
*760 FILLER_11_627
*761 FILLER_11_634
*762 FILLER_11_641
*763 FILLER_11_648
*764 FILLER_11_655
*765 FILLER_11_662
*766 FILLER_11_669
*767 FILLER_11_67
*768 FILLER_11_676
*769 FILLER_11_683
*770 FILLER_11_690
*771 FILLER_11_697
*772 FILLER_11_704
*773 FILLER_11_711
*774 FILLER_11_718
*775 FILLER_11_725
*776 FILLER_11_732
*777 FILLER_11_739
*778 FILLER_11_74
*779 FILLER_11_746
*780 FILLER_11_753
*781 FILLER_11_760
*782 FILLER_11_767
*783 FILLER_11_774
*784 FILLER_11_781
*785 FILLER_11_788
*786 FILLER_11_795
*787 FILLER_11_802
*788 FILLER_11_809
*789 FILLER_11_81
*790 FILLER_11_816
*791 FILLER_11_88
*792 FILLER_11_95
*793 FILLER_12_102
*794 FILLER_12_109
*795 FILLER_12_11
*796 FILLER_12_116
*797 FILLER_12_123
*798 FILLER_12_130
*799 FILLER_12_137
*800 FILLER_12_144
*801 FILLER_12_151
*802 FILLER_12_158
*803 FILLER_12_165
*804 FILLER_12_172
*805 FILLER_12_179
*806 FILLER_12_18
*807 FILLER_12_186
*808 FILLER_12_193
*809 FILLER_12_200
*810 FILLER_12_207
*811 FILLER_12_214
*812 FILLER_12_221
*813 FILLER_12_228
*814 FILLER_12_235
*815 FILLER_12_242
*816 FILLER_12_249
*817 FILLER_12_25
*818 FILLER_12_256
*819 FILLER_12_263
*820 FILLER_12_270
*821 FILLER_12_277
*822 FILLER_12_284
*823 FILLER_12_291
*824 FILLER_12_298
*825 FILLER_12_305
*826 FILLER_12_312
*827 FILLER_12_319
*828 FILLER_12_32
*829 FILLER_12_326
*830 FILLER_12_333
*831 FILLER_12_340
*832 FILLER_12_347
*833 FILLER_12_354
*834 FILLER_12_361
*835 FILLER_12_368
*836 FILLER_12_375
*837 FILLER_12_382
*838 FILLER_12_389
*839 FILLER_12_39
*840 FILLER_12_396
*841 FILLER_12_4
*842 FILLER_12_403
*843 FILLER_12_410
*844 FILLER_12_417
*845 FILLER_12_424
*846 FILLER_12_431
*847 FILLER_12_438
*848 FILLER_12_445
*849 FILLER_12_452
*850 FILLER_12_459
*851 FILLER_12_46
*852 FILLER_12_466
*853 FILLER_12_473
*854 FILLER_12_480
*855 FILLER_12_487
*856 FILLER_12_494
*857 FILLER_12_501
*858 FILLER_12_508
*859 FILLER_12_515
*860 FILLER_12_522
*861 FILLER_12_529
*862 FILLER_12_53
*863 FILLER_12_536
*864 FILLER_12_543
*865 FILLER_12_550
*866 FILLER_12_557
*867 FILLER_12_564
*868 FILLER_12_571
*869 FILLER_12_578
*870 FILLER_12_585
*871 FILLER_12_592
*872 FILLER_12_599
*873 FILLER_12_60
*874 FILLER_12_606
*875 FILLER_12_613
*876 FILLER_12_620
*877 FILLER_12_627
*878 FILLER_12_634
*879 FILLER_12_641
*880 FILLER_12_648
*881 FILLER_12_655
*882 FILLER_12_662
*883 FILLER_12_669
*884 FILLER_12_67
*885 FILLER_12_676
*886 FILLER_12_683
*887 FILLER_12_690
*888 FILLER_12_697
*889 FILLER_12_704
*890 FILLER_12_711
*891 FILLER_12_718
*892 FILLER_12_725
*893 FILLER_12_732
*894 FILLER_12_739
*895 FILLER_12_74
*896 FILLER_12_746
*897 FILLER_12_753
*898 FILLER_12_760
*899 FILLER_12_767
*900 FILLER_12_774
*901 FILLER_12_781
*902 FILLER_12_788
*903 FILLER_12_792
*904 FILLER_12_796
*905 FILLER_12_803
*906 FILLER_12_81
*907 FILLER_12_810
*908 FILLER_12_817
*909 FILLER_12_821
*910 FILLER_12_88
*911 FILLER_12_95
*912 FILLER_13_104
*913 FILLER_13_111
*914 FILLER_13_118
*915 FILLER_13_125
*916 FILLER_13_13
*917 FILLER_13_132
*918 FILLER_13_139
*919 FILLER_13_146
*920 FILLER_13_153
*921 FILLER_13_160
*922 FILLER_13_167
*923 FILLER_13_174
*924 FILLER_13_181
*925 FILLER_13_188
*926 FILLER_13_195
*927 FILLER_13_20
*928 FILLER_13_202
*929 FILLER_13_209
*930 FILLER_13_216
*931 FILLER_13_223
*932 FILLER_13_230
*933 FILLER_13_237
*934 FILLER_13_244
*935 FILLER_13_251
*936 FILLER_13_258
*937 FILLER_13_265
*938 FILLER_13_27
*939 FILLER_13_272
*940 FILLER_13_279
*941 FILLER_13_286
*942 FILLER_13_293
*943 FILLER_13_300
*944 FILLER_13_307
*945 FILLER_13_314
*946 FILLER_13_321
*947 FILLER_13_328
*948 FILLER_13_335
*949 FILLER_13_34
*950 FILLER_13_342
*951 FILLER_13_349
*952 FILLER_13_356
*953 FILLER_13_363
*954 FILLER_13_370
*955 FILLER_13_377
*956 FILLER_13_384
*957 FILLER_13_391
*958 FILLER_13_398
*959 FILLER_13_4
*960 FILLER_13_405
*961 FILLER_13_41
*962 FILLER_13_412
*963 FILLER_13_419
*964 FILLER_13_426
*965 FILLER_13_433
*966 FILLER_13_440
*967 FILLER_13_447
*968 FILLER_13_454
*969 FILLER_13_461
*970 FILLER_13_468
*971 FILLER_13_475
*972 FILLER_13_48
*973 FILLER_13_482
*974 FILLER_13_489
*975 FILLER_13_496
*976 FILLER_13_503
*977 FILLER_13_510
*978 FILLER_13_517
*979 FILLER_13_524
*980 FILLER_13_531
*981 FILLER_13_538
*982 FILLER_13_545
*983 FILLER_13_55
*984 FILLER_13_552
*985 FILLER_13_559
*986 FILLER_13_566
*987 FILLER_13_573
*988 FILLER_13_580
*989 FILLER_13_587
*990 FILLER_13_594
*991 FILLER_13_601
*992 FILLER_13_608
*993 FILLER_13_615
*994 FILLER_13_62
*995 FILLER_13_622
*996 FILLER_13_629
*997 FILLER_13_636
*998 FILLER_13_643
*999 FILLER_13_650
*1000 FILLER_13_657
*1001 FILLER_13_664
*1002 FILLER_13_671
*1003 FILLER_13_678
*1004 FILLER_13_685
*1005 FILLER_13_69
*1006 FILLER_13_692
*1007 FILLER_13_699
*1008 FILLER_13_706
*1009 FILLER_13_713
*1010 FILLER_13_720
*1011 FILLER_13_727
*1012 FILLER_13_734
*1013 FILLER_13_741
*1014 FILLER_13_746
*1015 FILLER_13_76
*1016 FILLER_13_777
*1017 FILLER_13_8
*1018 FILLER_13_808
*1019 FILLER_13_815
*1020 FILLER_13_822
*1021 FILLER_13_83
*1022 FILLER_13_90
*1023 FILLER_13_97
*1024 FILLER_14_104
*1025 FILLER_14_111
*1026 FILLER_14_118
*1027 FILLER_14_125
*1028 FILLER_14_13
*1029 FILLER_14_132
*1030 FILLER_14_139
*1031 FILLER_14_146
*1032 FILLER_14_153
*1033 FILLER_14_160
*1034 FILLER_14_167
*1035 FILLER_14_174
*1036 FILLER_14_181
*1037 FILLER_14_188
*1038 FILLER_14_195
*1039 FILLER_14_20
*1040 FILLER_14_202
*1041 FILLER_14_209
*1042 FILLER_14_216
*1043 FILLER_14_223
*1044 FILLER_14_230
*1045 FILLER_14_237
*1046 FILLER_14_244
*1047 FILLER_14_251
*1048 FILLER_14_258
*1049 FILLER_14_265
*1050 FILLER_14_27
*1051 FILLER_14_272
*1052 FILLER_14_279
*1053 FILLER_14_286
*1054 FILLER_14_293
*1055 FILLER_14_300
*1056 FILLER_14_307
*1057 FILLER_14_314
*1058 FILLER_14_321
*1059 FILLER_14_328
*1060 FILLER_14_335
*1061 FILLER_14_34
*1062 FILLER_14_342
*1063 FILLER_14_349
*1064 FILLER_14_356
*1065 FILLER_14_363
*1066 FILLER_14_370
*1067 FILLER_14_377
*1068 FILLER_14_384
*1069 FILLER_14_391
*1070 FILLER_14_398
*1071 FILLER_14_4
*1072 FILLER_14_405
*1073 FILLER_14_41
*1074 FILLER_14_412
*1075 FILLER_14_419
*1076 FILLER_14_426
*1077 FILLER_14_433
*1078 FILLER_14_440
*1079 FILLER_14_447
*1080 FILLER_14_454
*1081 FILLER_14_461
*1082 FILLER_14_468
*1083 FILLER_14_475
*1084 FILLER_14_48
*1085 FILLER_14_482
*1086 FILLER_14_489
*1087 FILLER_14_496
*1088 FILLER_14_503
*1089 FILLER_14_510
*1090 FILLER_14_517
*1091 FILLER_14_524
*1092 FILLER_14_531
*1093 FILLER_14_538
*1094 FILLER_14_545
*1095 FILLER_14_55
*1096 FILLER_14_552
*1097 FILLER_14_559
*1098 FILLER_14_566
*1099 FILLER_14_573
*1100 FILLER_14_580
*1101 FILLER_14_587
*1102 FILLER_14_594
*1103 FILLER_14_601
*1104 FILLER_14_608
*1105 FILLER_14_615
*1106 FILLER_14_62
*1107 FILLER_14_622
*1108 FILLER_14_629
*1109 FILLER_14_636
*1110 FILLER_14_643
*1111 FILLER_14_650
*1112 FILLER_14_657
*1113 FILLER_14_664
*1114 FILLER_14_671
*1115 FILLER_14_678
*1116 FILLER_14_685
*1117 FILLER_14_69
*1118 FILLER_14_692
*1119 FILLER_14_699
*1120 FILLER_14_706
*1121 FILLER_14_713
*1122 FILLER_14_720
*1123 FILLER_14_751
*1124 FILLER_14_759
*1125 FILLER_14_76
*1126 FILLER_14_763
*1127 FILLER_14_772
*1128 FILLER_14_774
*1129 FILLER_14_780
*1130 FILLER_14_788
*1131 FILLER_14_8
*1132 FILLER_14_83
*1133 FILLER_14_90
*1134 FILLER_14_97
*1135 FILLER_15_104
*1136 FILLER_15_111
*1137 FILLER_15_118
*1138 FILLER_15_125
*1139 FILLER_15_13
*1140 FILLER_15_132
*1141 FILLER_15_139
*1142 FILLER_15_146
*1143 FILLER_15_153
*1144 FILLER_15_160
*1145 FILLER_15_167
*1146 FILLER_15_174
*1147 FILLER_15_181
*1148 FILLER_15_188
*1149 FILLER_15_195
*1150 FILLER_15_20
*1151 FILLER_15_202
*1152 FILLER_15_209
*1153 FILLER_15_216
*1154 FILLER_15_223
*1155 FILLER_15_230
*1156 FILLER_15_237
*1157 FILLER_15_244
*1158 FILLER_15_251
*1159 FILLER_15_258
*1160 FILLER_15_265
*1161 FILLER_15_27
*1162 FILLER_15_272
*1163 FILLER_15_279
*1164 FILLER_15_286
*1165 FILLER_15_293
*1166 FILLER_15_300
*1167 FILLER_15_307
*1168 FILLER_15_314
*1169 FILLER_15_321
*1170 FILLER_15_328
*1171 FILLER_15_335
*1172 FILLER_15_34
*1173 FILLER_15_342
*1174 FILLER_15_349
*1175 FILLER_15_356
*1176 FILLER_15_363
*1177 FILLER_15_370
*1178 FILLER_15_377
*1179 FILLER_15_384
*1180 FILLER_15_391
*1181 FILLER_15_398
*1182 FILLER_15_4
*1183 FILLER_15_405
*1184 FILLER_15_41
*1185 FILLER_15_412
*1186 FILLER_15_419
*1187 FILLER_15_426
*1188 FILLER_15_433
*1189 FILLER_15_440
*1190 FILLER_15_447
*1191 FILLER_15_454
*1192 FILLER_15_461
*1193 FILLER_15_468
*1194 FILLER_15_475
*1195 FILLER_15_48
*1196 FILLER_15_482
*1197 FILLER_15_489
*1198 FILLER_15_496
*1199 FILLER_15_503
*1200 FILLER_15_510
*1201 FILLER_15_517
*1202 FILLER_15_524
*1203 FILLER_15_531
*1204 FILLER_15_538
*1205 FILLER_15_545
*1206 FILLER_15_55
*1207 FILLER_15_552
*1208 FILLER_15_559
*1209 FILLER_15_566
*1210 FILLER_15_573
*1211 FILLER_15_580
*1212 FILLER_15_587
*1213 FILLER_15_594
*1214 FILLER_15_601
*1215 FILLER_15_608
*1216 FILLER_15_615
*1217 FILLER_15_62
*1218 FILLER_15_622
*1219 FILLER_15_629
*1220 FILLER_15_636
*1221 FILLER_15_643
*1222 FILLER_15_650
*1223 FILLER_15_657
*1224 FILLER_15_664
*1225 FILLER_15_671
*1226 FILLER_15_678
*1227 FILLER_15_685
*1228 FILLER_15_69
*1229 FILLER_15_692
*1230 FILLER_15_699
*1231 FILLER_15_706
*1232 FILLER_15_740
*1233 FILLER_15_747
*1234 FILLER_15_753
*1235 FILLER_15_757
*1236 FILLER_15_76
*1237 FILLER_15_771
*1238 FILLER_15_8
*1239 FILLER_15_810
*1240 FILLER_15_817
*1241 FILLER_15_821
*1242 FILLER_15_83
*1243 FILLER_15_90
*1244 FILLER_15_97
*1245 FILLER_16_104
*1246 FILLER_16_111
*1247 FILLER_16_118
*1248 FILLER_16_125
*1249 FILLER_16_13
*1250 FILLER_16_132
*1251 FILLER_16_139
*1252 FILLER_16_146
*1253 FILLER_16_153
*1254 FILLER_16_160
*1255 FILLER_16_167
*1256 FILLER_16_174
*1257 FILLER_16_181
*1258 FILLER_16_188
*1259 FILLER_16_195
*1260 FILLER_16_20
*1261 FILLER_16_202
*1262 FILLER_16_209
*1263 FILLER_16_216
*1264 FILLER_16_223
*1265 FILLER_16_230
*1266 FILLER_16_237
*1267 FILLER_16_244
*1268 FILLER_16_251
*1269 FILLER_16_258
*1270 FILLER_16_265
*1271 FILLER_16_27
*1272 FILLER_16_272
*1273 FILLER_16_279
*1274 FILLER_16_286
*1275 FILLER_16_293
*1276 FILLER_16_300
*1277 FILLER_16_307
*1278 FILLER_16_314
*1279 FILLER_16_321
*1280 FILLER_16_328
*1281 FILLER_16_335
*1282 FILLER_16_34
*1283 FILLER_16_342
*1284 FILLER_16_349
*1285 FILLER_16_356
*1286 FILLER_16_363
*1287 FILLER_16_370
*1288 FILLER_16_377
*1289 FILLER_16_384
*1290 FILLER_16_391
*1291 FILLER_16_398
*1292 FILLER_16_4
*1293 FILLER_16_405
*1294 FILLER_16_41
*1295 FILLER_16_412
*1296 FILLER_16_419
*1297 FILLER_16_426
*1298 FILLER_16_433
*1299 FILLER_16_440
*1300 FILLER_16_447
*1301 FILLER_16_454
*1302 FILLER_16_461
*1303 FILLER_16_468
*1304 FILLER_16_475
*1305 FILLER_16_48
*1306 FILLER_16_482
*1307 FILLER_16_489
*1308 FILLER_16_496
*1309 FILLER_16_503
*1310 FILLER_16_510
*1311 FILLER_16_517
*1312 FILLER_16_524
*1313 FILLER_16_531
*1314 FILLER_16_538
*1315 FILLER_16_545
*1316 FILLER_16_55
*1317 FILLER_16_552
*1318 FILLER_16_559
*1319 FILLER_16_566
*1320 FILLER_16_573
*1321 FILLER_16_580
*1322 FILLER_16_587
*1323 FILLER_16_594
*1324 FILLER_16_601
*1325 FILLER_16_608
*1326 FILLER_16_615
*1327 FILLER_16_62
*1328 FILLER_16_622
*1329 FILLER_16_629
*1330 FILLER_16_636
*1331 FILLER_16_643
*1332 FILLER_16_650
*1333 FILLER_16_657
*1334 FILLER_16_664
*1335 FILLER_16_671
*1336 FILLER_16_678
*1337 FILLER_16_685
*1338 FILLER_16_69
*1339 FILLER_16_716
*1340 FILLER_16_753
*1341 FILLER_16_76
*1342 FILLER_16_781
*1343 FILLER_16_788
*1344 FILLER_16_8
*1345 FILLER_16_800
*1346 FILLER_16_810
*1347 FILLER_16_817
*1348 FILLER_16_821
*1349 FILLER_16_83
*1350 FILLER_16_90
*1351 FILLER_16_97
*1352 FILLER_17_0
*1353 FILLER_17_104
*1354 FILLER_17_111
*1355 FILLER_17_118
*1356 FILLER_17_125
*1357 FILLER_17_13
*1358 FILLER_17_132
*1359 FILLER_17_139
*1360 FILLER_17_146
*1361 FILLER_17_153
*1362 FILLER_17_160
*1363 FILLER_17_167
*1364 FILLER_17_174
*1365 FILLER_17_181
*1366 FILLER_17_188
*1367 FILLER_17_195
*1368 FILLER_17_20
*1369 FILLER_17_202
*1370 FILLER_17_209
*1371 FILLER_17_216
*1372 FILLER_17_223
*1373 FILLER_17_230
*1374 FILLER_17_237
*1375 FILLER_17_244
*1376 FILLER_17_251
*1377 FILLER_17_258
*1378 FILLER_17_265
*1379 FILLER_17_27
*1380 FILLER_17_272
*1381 FILLER_17_279
*1382 FILLER_17_286
*1383 FILLER_17_293
*1384 FILLER_17_300
*1385 FILLER_17_307
*1386 FILLER_17_314
*1387 FILLER_17_321
*1388 FILLER_17_328
*1389 FILLER_17_335
*1390 FILLER_17_34
*1391 FILLER_17_342
*1392 FILLER_17_349
*1393 FILLER_17_356
*1394 FILLER_17_363
*1395 FILLER_17_370
*1396 FILLER_17_377
*1397 FILLER_17_384
*1398 FILLER_17_391
*1399 FILLER_17_398
*1400 FILLER_17_405
*1401 FILLER_17_41
*1402 FILLER_17_412
*1403 FILLER_17_419
*1404 FILLER_17_426
*1405 FILLER_17_433
*1406 FILLER_17_440
*1407 FILLER_17_447
*1408 FILLER_17_454
*1409 FILLER_17_461
*1410 FILLER_17_468
*1411 FILLER_17_475
*1412 FILLER_17_48
*1413 FILLER_17_482
*1414 FILLER_17_489
*1415 FILLER_17_496
*1416 FILLER_17_503
*1417 FILLER_17_510
*1418 FILLER_17_517
*1419 FILLER_17_524
*1420 FILLER_17_531
*1421 FILLER_17_538
*1422 FILLER_17_545
*1423 FILLER_17_55
*1424 FILLER_17_552
*1425 FILLER_17_559
*1426 FILLER_17_566
*1427 FILLER_17_573
*1428 FILLER_17_580
*1429 FILLER_17_587
*1430 FILLER_17_594
*1431 FILLER_17_601
*1432 FILLER_17_608
*1433 FILLER_17_615
*1434 FILLER_17_62
*1435 FILLER_17_622
*1436 FILLER_17_629
*1437 FILLER_17_636
*1438 FILLER_17_643
*1439 FILLER_17_647
*1440 FILLER_17_655
*1441 FILLER_17_662
*1442 FILLER_17_666
*1443 FILLER_17_69
*1444 FILLER_17_7
*1445 FILLER_17_703
*1446 FILLER_17_721
*1447 FILLER_17_76
*1448 FILLER_17_762
*1449 FILLER_17_769
*1450 FILLER_17_776
*1451 FILLER_17_820
*1452 FILLER_17_822
*1453 FILLER_17_83
*1454 FILLER_17_90
*1455 FILLER_17_97
*1456 FILLER_18_104
*1457 FILLER_18_111
*1458 FILLER_18_118
*1459 FILLER_18_125
*1460 FILLER_18_13
*1461 FILLER_18_132
*1462 FILLER_18_139
*1463 FILLER_18_146
*1464 FILLER_18_153
*1465 FILLER_18_160
*1466 FILLER_18_167
*1467 FILLER_18_174
*1468 FILLER_18_181
*1469 FILLER_18_188
*1470 FILLER_18_195
*1471 FILLER_18_20
*1472 FILLER_18_202
*1473 FILLER_18_209
*1474 FILLER_18_216
*1475 FILLER_18_223
*1476 FILLER_18_230
*1477 FILLER_18_237
*1478 FILLER_18_244
*1479 FILLER_18_251
*1480 FILLER_18_258
*1481 FILLER_18_265
*1482 FILLER_18_27
*1483 FILLER_18_272
*1484 FILLER_18_279
*1485 FILLER_18_286
*1486 FILLER_18_293
*1487 FILLER_18_300
*1488 FILLER_18_307
*1489 FILLER_18_314
*1490 FILLER_18_321
*1491 FILLER_18_328
*1492 FILLER_18_335
*1493 FILLER_18_34
*1494 FILLER_18_342
*1495 FILLER_18_349
*1496 FILLER_18_356
*1497 FILLER_18_363
*1498 FILLER_18_370
*1499 FILLER_18_377
*1500 FILLER_18_384
*1501 FILLER_18_391
*1502 FILLER_18_398
*1503 FILLER_18_4
*1504 FILLER_18_405
*1505 FILLER_18_41
*1506 FILLER_18_412
*1507 FILLER_18_419
*1508 FILLER_18_426
*1509 FILLER_18_433
*1510 FILLER_18_440
*1511 FILLER_18_447
*1512 FILLER_18_454
*1513 FILLER_18_461
*1514 FILLER_18_468
*1515 FILLER_18_475
*1516 FILLER_18_48
*1517 FILLER_18_482
*1518 FILLER_18_489
*1519 FILLER_18_496
*1520 FILLER_18_503
*1521 FILLER_18_510
*1522 FILLER_18_517
*1523 FILLER_18_524
*1524 FILLER_18_531
*1525 FILLER_18_538
*1526 FILLER_18_545
*1527 FILLER_18_55
*1528 FILLER_18_552
*1529 FILLER_18_559
*1530 FILLER_18_566
*1531 FILLER_18_573
*1532 FILLER_18_580
*1533 FILLER_18_587
*1534 FILLER_18_594
*1535 FILLER_18_601
*1536 FILLER_18_608
*1537 FILLER_18_615
*1538 FILLER_18_62
*1539 FILLER_18_628
*1540 FILLER_18_635
*1541 FILLER_18_672
*1542 FILLER_18_680
*1543 FILLER_18_687
*1544 FILLER_18_69
*1545 FILLER_18_692
*1546 FILLER_18_702
*1547 FILLER_18_710
*1548 FILLER_18_717
*1549 FILLER_18_721
*1550 FILLER_18_730
*1551 FILLER_18_744
*1552 FILLER_18_751
*1553 FILLER_18_758
*1554 FILLER_18_76
*1555 FILLER_18_765
*1556 FILLER_18_769
*1557 FILLER_18_781
*1558 FILLER_18_783
*1559 FILLER_18_789
*1560 FILLER_18_8
*1561 FILLER_18_801
*1562 FILLER_18_805
*1563 FILLER_18_809
*1564 FILLER_18_816
*1565 FILLER_18_83
*1566 FILLER_18_90
*1567 FILLER_18_97
*1568 FILLER_19_104
*1569 FILLER_19_111
*1570 FILLER_19_118
*1571 FILLER_19_125
*1572 FILLER_19_13
*1573 FILLER_19_132
*1574 FILLER_19_139
*1575 FILLER_19_146
*1576 FILLER_19_153
*1577 FILLER_19_160
*1578 FILLER_19_167
*1579 FILLER_19_174
*1580 FILLER_19_181
*1581 FILLER_19_188
*1582 FILLER_19_195
*1583 FILLER_19_20
*1584 FILLER_19_202
*1585 FILLER_19_209
*1586 FILLER_19_216
*1587 FILLER_19_223
*1588 FILLER_19_230
*1589 FILLER_19_237
*1590 FILLER_19_244
*1591 FILLER_19_251
*1592 FILLER_19_258
*1593 FILLER_19_265
*1594 FILLER_19_27
*1595 FILLER_19_272
*1596 FILLER_19_279
*1597 FILLER_19_286
*1598 FILLER_19_293
*1599 FILLER_19_300
*1600 FILLER_19_307
*1601 FILLER_19_314
*1602 FILLER_19_321
*1603 FILLER_19_328
*1604 FILLER_19_335
*1605 FILLER_19_34
*1606 FILLER_19_342
*1607 FILLER_19_349
*1608 FILLER_19_356
*1609 FILLER_19_363
*1610 FILLER_19_370
*1611 FILLER_19_377
*1612 FILLER_19_384
*1613 FILLER_19_391
*1614 FILLER_19_398
*1615 FILLER_19_405
*1616 FILLER_19_41
*1617 FILLER_19_412
*1618 FILLER_19_419
*1619 FILLER_19_426
*1620 FILLER_19_433
*1621 FILLER_19_440
*1622 FILLER_19_447
*1623 FILLER_19_454
*1624 FILLER_19_461
*1625 FILLER_19_468
*1626 FILLER_19_475
*1627 FILLER_19_48
*1628 FILLER_19_482
*1629 FILLER_19_489
*1630 FILLER_19_496
*1631 FILLER_19_503
*1632 FILLER_19_510
*1633 FILLER_19_517
*1634 FILLER_19_524
*1635 FILLER_19_531
*1636 FILLER_19_538
*1637 FILLER_19_545
*1638 FILLER_19_55
*1639 FILLER_19_552
*1640 FILLER_19_559
*1641 FILLER_19_566
*1642 FILLER_19_573
*1643 FILLER_19_580
*1644 FILLER_19_587
*1645 FILLER_19_594
*1646 FILLER_19_601
*1647 FILLER_19_608
*1648 FILLER_19_613
*1649 FILLER_19_62
*1650 FILLER_19_647
*1651 FILLER_19_654
*1652 FILLER_19_668
*1653 FILLER_19_674
*1654 FILLER_19_679
*1655 FILLER_19_681
*1656 FILLER_19_69
*1657 FILLER_19_694
*1658 FILLER_19_701
*1659 FILLER_19_710
*1660 FILLER_19_716
*1661 FILLER_19_76
*1662 FILLER_19_786
*1663 FILLER_19_8
*1664 FILLER_19_815
*1665 FILLER_19_822
*1666 FILLER_19_83
*1667 FILLER_19_90
*1668 FILLER_19_97
*1669 FILLER_1_0
*1670 FILLER_1_105
*1671 FILLER_1_112
*1672 FILLER_1_119
*1673 FILLER_1_126
*1674 FILLER_1_133
*1675 FILLER_1_14
*1676 FILLER_1_140
*1677 FILLER_1_147
*1678 FILLER_1_154
*1679 FILLER_1_161