*SPEF "ieee 1481-1999"
*DESIGN "heichips25_pudding"
*DATE "21:21:21 Thursday March 12, 2026"
*VENDOR "The OpenROAD Project"
*PROGRAM "OpenROAD"
*VERSION "dfc4f595dfb2e1c346492ff1f0274abb28725acf"
*DESIGN_FLOW "NAME_SCOPE LOCAL" "PIN_CAP NONE"
*DIVIDER /
*DELIMITER :
*BUS_DELIMITER []
*T_UNIT 1 NS
*C_UNIT 1 PF
*R_UNIT 1 OHM
*L_UNIT 1 HENRY

*NAME_MAP
*3 clk
*4 ena
*5 i_in
*6 i_out
*7 rst_n
*8 ui_in[0]
*9 ui_in[1]
*10 ui_in[2]
*11 ui_in[3]
*12 ui_in[4]
*13 ui_in[5]
*14 ui_in[6]
*15 ui_in[7]
*16 uio_in[0]
*17 uio_in[1]
*18 uio_in[2]
*19 uio_in[3]
*20 uio_in[4]
*21 uio_in[5]
*22 uio_in[6]
*23 uio_in[7]
*24 net
*25 net120
*26 net121
*27 net122
*28 net123
*29 net124
*30 net125
*31 net126
*32 uio_out[0]
*33 uio_out[1]
*34 uio_out[2]
*35 uio_out[3]
*36 uio_out[4]
*37 uio_out[5]
*38 uio_out[6]
*39 uio_out[7]
*40 uo_out[0]
*41 uo_out[1]
*42 uo_out[2]
*43 uo_out[3]
*44 uo_out[4]
*45 uo_out[5]
*46 uo_out[6]
*47 uo_out[7]
*48 _0000_
*49 _0001_
*50 _0002_
*51 _0003_
*52 _0004_
*53 _0005_
*54 _0006_
*55 _0007_
*56 _0008_
*57 _0009_
*58 _0010_
*59 _0011_
*60 _0012_
*61 _0013_
*62 _0014_
*63 _0015_
*64 _0016_
*65 _0017_
*66 _0018_
*67 _0019_
*68 _0020_
*69 _0021_
*70 _0022_
*71 _0023_
*72 _0024_
*73 _0025_
*74 _0026_
*75 _0027_
*76 _0028_
*77 _0029_
*78 _0030_
*79 _0031_
*80 _0032_
*81 _0033_
*82 _0034_
*83 _0035_
*84 _0036_
*85 _0037_
*86 _0038_
*87 _0039_
*88 _0040_
*89 _0041_
*90 _0042_
*91 _0043_
*92 _0044_
*93 _0045_
*94 _0046_
*95 _0047_
*96 _0048_
*97 _0049_
*98 _0050_
*99 _0051_
*100 _0052_
*101 _0053_
*102 _0054_
*103 _0055_
*104 _0056_
*105 _0057_
*106 _0058_
*107 _0059_
*108 _0060_
*109 _0061_
*110 _0062_
*111 _0063_
*112 _0064_
*113 _0065_
*114 _0066_
*115 _0067_
*116 _0068_
*117 _0069_
*118 _0070_
*119 _0071_
*120 _0072_
*121 _0073_
*122 _0074_
*123 _0075_
*124 _0076_
*125 _0077_
*126 _0078_
*127 _0079_
*128 _0080_
*129 _0081_
*130 _0082_
*131 _0083_
*132 _0084_
*133 _0085_
*134 _0086_
*135 _0087_
*136 _0088_
*137 _0089_
*138 _0090_
*139 _0091_
*140 _0092_
*141 _0093_
*142 _0094_
*143 _0095_
*144 _0096_
*145 _0097_
*146 _0098_
*147 _0099_
*148 _0100_
*149 _0101_
*150 _0102_
*151 _0103_
*152 _0104_
*153 _0105_
*154 _0106_
*155 _0107_
*156 _0108_
*157 _0109_
*158 _0110_
*159 _0111_
*160 _0112_
*161 _0113_
*162 _0114_
*163 _0115_
*164 _0116_
*165 _0117_
*166 _0118_
*167 _0119_
*168 _0120_
*169 _0121_
*170 _0122_
*171 _0123_
*172 _0124_
*173 _0125_
*174 _0126_
*175 _0127_
*176 _0128_
*177 _0129_
*178 _0130_
*179 _0131_
*180 _0132_
*181 _0133_
*182 _0134_
*183 _0135_
*184 _0136_
*185 _0137_
*186 _0138_
*187 _0139_
*188 _0140_
*189 _0141_
*190 _0142_
*191 _0143_
*192 _0144_
*193 _0145_
*194 _0146_
*195 _0147_
*196 _0148_
*197 _0149_
*198 _0150_
*199 _0151_
*200 _0152_
*201 _0153_
*202 _0154_
*203 _0155_
*204 _0156_
*205 _0157_
*206 _0158_
*207 _0159_
*208 _0160_
*209 _0161_
*210 _0162_
*211 _0163_
*212 _0164_
*213 _0165_
*214 _0166_
*215 _0167_
*216 _0168_
*217 _0169_
*218 _0170_
*219 _0171_
*220 _0172_
*221 _0173_
*222 _0174_
*223 _0175_
*224 _0176_
*225 _0177_
*226 _0178_
*227 _0179_
*228 _0180_
*229 _0181_
*230 _0182_
*231 _0183_
*232 _0184_
*233 _0185_
*234 _0186_
*235 _0187_
*236 _0188_
*237 _0189_
*238 _0190_
*239 _0191_
*240 _0192_
*241 _0193_
*242 _0194_
*243 _0195_
*244 _0196_
*245 _0197_
*246 _0198_
*247 _0199_
*248 _0200_
*249 _0201_
*250 _0202_
*251 _0203_
*252 _0204_
*253 _0205_
*254 _0206_
*255 _0207_
*256 _0208_
*257 _0209_
*258 _0210_
*259 _0211_
*260 _0212_
*261 _0213_
*262 _0214_
*263 _0215_
*264 _0216_
*265 _0217_
*266 _0218_
*267 _0219_
*268 _0220_
*269 _0221_
*270 _0222_
*271 _0223_
*272 _0224_
*273 _0225_
*274 _0226_
*275 _0227_
*276 _0228_
*277 _0229_
*278 _0230_
*279 _0231_
*280 _0232_
*281 _0233_
*282 _0234_
*283 _0235_
*284 _0236_
*285 _0237_
*286 _0238_
*287 _0239_
*288 _0240_
*289 _0241_
*290 _0242_
*291 _0243_
*292 _0244_
*293 _0245_
*294 _0246_
*295 _0247_
*296 _0248_
*297 _0249_
*298 _0250_
*299 _0251_
*300 _0252_
*301 _0253_
*302 _0254_
*303 _0255_
*304 _0256_
*305 _0257_
*306 _0258_
*307 _0259_
*308 _0260_
*309 _0261_
*310 _0262_
*311 _0263_
*312 _0264_
*313 _0265_
*314 _0266_
*315 _0267_
*316 _0268_
*317 _0269_
*318 _0270_
*319 _0271_
*320 _0272_
*321 _0273_
*322 _0274_
*323 _0275_
*324 _0276_
*325 _0277_
*326 _0278_
*327 _0279_
*328 _0280_
*329 _0281_
*330 _0282_
*331 _0283_
*332 _0284_
*333 _0285_
*334 _0286_
*335 _0287_
*336 _0288_
*337 _0289_
*338 _0290_
*339 _0291_
*340 _0292_
*341 _0293_
*342 _0294_
*343 _0295_
*344 _0296_
*345 _0297_
*346 _0298_
*347 _0299_
*348 _0300_
*349 _0301_
*350 _0302_
*351 _0303_
*352 _0304_
*353 _0305_
*354 _0306_
*355 _0307_
*356 _0308_
*357 _0309_
*358 _0310_
*359 _0311_
*360 _0312_
*361 _0313_
*362 _0314_
*363 _0315_
*364 _0316_
*365 _0317_
*366 _0318_
*367 _0319_
*368 _0320_
*369 _0321_
*370 _0322_
*371 _0323_
*372 _0324_
*373 _0325_
*374 _0326_
*375 _0327_
*376 _0328_
*377 _0329_
*378 _0330_
*379 _0331_
*380 _0332_
*381 _0333_
*382 _0334_
*383 _0335_
*384 _0336_
*385 _0337_
*386 _0338_
*387 _0339_
*388 _0340_
*389 _0341_
*390 _0342_
*391 _0343_
*392 _0344_
*393 _0345_
*394 _0346_
*395 _0347_
*396 _0348_
*397 _0349_
*398 _0350_
*399 _0351_
*400 _0352_
*401 _0353_
*402 _0354_
*403 _0355_
*404 _0356_
*405 _0357_
*406 _0358_
*407 _0359_
*408 _0360_
*409 _0361_
*410 _0362_
*411 _0363_
*412 _0364_
*413 _0365_
*414 _0366_
*415 _0367_
*416 _0368_
*417 _0369_
*418 _0370_
*419 _0371_
*420 _0372_
*421 _0373_
*422 _0374_
*423 _0375_
*424 _0376_
*425 _0377_
*426 _0378_
*427 _0379_
*428 _0380_
*429 _0381_
*430 _0382_
*431 _0383_
*432 _0384_
*433 _0385_
*434 _0386_
*435 _0387_
*436 _0388_
*437 _0389_
*438 _0390_
*439 _0391_
*440 _0392_
*441 _0393_
*442 _0394_
*443 _0395_
*444 _0396_
*445 _0397_
*446 _0398_
*447 _0399_
*448 _0400_
*449 _0401_
*450 _0402_
*451 _0403_
*452 _0404_
*453 _0405_
*454 _0406_
*455 _0407_
*456 _0408_
*457 _0409_
*458 _0410_
*459 _0411_
*460 _0412_
*461 _0413_
*462 _0414_
*463 _0415_
*464 _0416_
*465 _0417_
*466 _0418_
*467 _0419_
*468 _0420_
*469 _0421_
*470 _0422_
*471 _0423_
*472 _0424_
*473 _0425_
*474 _0426_
*475 _0427_
*476 _0428_
*477 _0429_
*478 _0430_
*479 _0431_
*480 _0432_
*481 _0433_
*482 _0434_
*483 _0435_
*484 _0436_
*485 _0437_
*486 _0438_
*487 _0439_
*488 _0440_
*489 _0441_
*490 _0442_
*491 _0443_
*492 _0444_
*493 _0445_
*494 _0446_
*495 _0447_
*496 _0448_
*497 _0449_
*498 _0450_
*499 _0451_
*500 bias\[0\]
*501 bias\[1\]
*502 bias\[2\]
*503 bias\[3\]
*504 clknet_0_clk
*505 clknet_4_0_0_clk
*506 clknet_4_10_0_clk
*507 clknet_4_11_0_clk
*508 clknet_4_12_0_clk
*509 clknet_4_13_0_clk
*510 clknet_4_14_0_clk
*511 clknet_4_15_0_clk
*512 clknet_4_1_0_clk
*513 clknet_4_2_0_clk
*514 clknet_4_3_0_clk
*515 clknet_4_4_0_clk
*516 clknet_4_5_0_clk
*517 clknet_4_6_0_clk
*518 clknet_4_7_0_clk
*519 clknet_4_8_0_clk
*520 clknet_4_9_0_clk
*521 clknet_5_0__leaf_clk
*522 clknet_5_10__leaf_clk
*523 clknet_5_11__leaf_clk
*524 clknet_5_12__leaf_clk
*525 clknet_5_13__leaf_clk
*526 clknet_5_14__leaf_clk
*527 clknet_5_15__leaf_clk
*528 clknet_5_16__leaf_clk
*529 clknet_5_17__leaf_clk
*530 clknet_5_18__leaf_clk
*531 clknet_5_19__leaf_clk
*532 clknet_5_1__leaf_clk
*533 clknet_5_20__leaf_clk
*534 clknet_5_21__leaf_clk
*535 clknet_5_22__leaf_clk
*536 clknet_5_23__leaf_clk
*537 clknet_5_24__leaf_clk
*538 clknet_5_25__leaf_clk
*539 clknet_5_26__leaf_clk
*540 clknet_5_27__leaf_clk
*541 clknet_5_28__leaf_clk
*542 clknet_5_29__leaf_clk
*543 clknet_5_2__leaf_clk
*544 clknet_5_30__leaf_clk
*545 clknet_5_31__leaf_clk
*546 clknet_5_3__leaf_clk
*547 clknet_5_4__leaf_clk
*548 clknet_5_5__leaf_clk
*549 clknet_5_6__leaf_clk
*550 clknet_5_7__leaf_clk
*551 clknet_5_8__leaf_clk
*552 clknet_5_9__leaf_clk
*553 dacout\[0\]
*554 dacout\[1\]
*555 daisychain\[0\]
*556 daisychain\[10\]
*557 daisychain\[11\]
*558 daisychain\[12\]
*559 daisychain\[13\]
*560 daisychain\[14\]
*561 daisychain\[15\]
*562 daisychain\[16\]
*563 daisychain\[17\]
*564 daisychain\[18\]
*565 daisychain\[19\]
*566 daisychain\[1\]
*567 daisychain\[20\]
*568 daisychain\[21\]
*569 daisychain\[22\]
*570 daisychain\[23\]
*571 daisychain\[24\]
*572 daisychain\[25\]
*573 daisychain\[26\]
*574 daisychain\[27\]
*575 daisychain\[28\]
*576 daisychain\[29\]
*577 daisychain\[2\]
*578 daisychain\[30\]
*579 daisychain\[31\]
*580 daisychain\[32\]
*581 daisychain\[33\]
*582 daisychain\[34\]
*583 daisychain\[35\]
*584 daisychain\[36\]
*585 daisychain\[37\]
*586 daisychain\[38\]
*587 daisychain\[39\]
*588 daisychain\[3\]
*589 daisychain\[40\]
*590 daisychain\[41\]
*591 daisychain\[42\]
*592 daisychain\[43\]
*593 daisychain\[44\]
*594 daisychain\[45\]
*595 daisychain\[46\]
*596 daisychain\[47\]
*597 daisychain\[48\]
*598 daisychain\[49\]
*599 daisychain\[4\]
*600 daisychain\[50\]
*601 daisychain\[51\]
*602 daisychain\[52\]
*603 daisychain\[53\]
*604 daisychain\[54\]
*605 daisychain\[55\]
*606 daisychain\[56\]
*607 daisychain\[57\]
*608 daisychain\[58\]
*609 daisychain\[59\]
*610 daisychain\[5\]
*611 daisychain\[60\]
*612 daisychain\[61\]
*613 daisychain\[62\]
*614 daisychain\[63\]
*615 daisychain\[6\]
*616 daisychain\[7\]
*617 daisychain\[8\]
*618 daisychain\[9\]
*619 digitalen\.g\[0\]\.u\.OUTN
*620 digitalen\.g\[0\]\.u\.OUTP
*621 digitalen\.g\[1\]\.u\.OUTN
*622 digitalen\.g\[1\]\.u\.OUTP
*623 digitalen\.g\[2\]\.u\.OUTN
*624 digitalen\.g\[2\]\.u\.OUTP
*625 digitalen\.g\[3\]\.u\.OUTN
*626 digitalen\.g\[3\]\.u\.OUTP
*627 iref\[0\]
*628 iref\[1\]
*629 iref\[2\]
*630 iref\[3\]
*631 net1
*632 net10
*633 net100
*634 net101
*635 net102
*636 net103
*637 net104
*638 net105
*639 net106
*640 net107
*641 net108
*642 net109
*643 net11
*644 net110
*645 net111
*646 net112
*647 net113
*648 net114
*649 net115
*650 net116
*651 net117
*652 net118
*653 net119
*654 net12
*655 net13
*656 net14
*657 net15
*658 net16
*659 net17
*660 net18
*661 net19
*662 net2
*663 net20
*664 net21
*665 net22
*666 net23
*667 net24
*668 net25
*669 net26
*670 net27
*671 net28
*672 net29
*673 net3
*674 net30
*675 net31
*676 net32
*677 net33
*678 net34
*679 net35
*680 net36
*681 net37
*682 net38
*683 net39
*684 net4
*685 net40
*686 net41
*687 net42
*688 net43
*689 net44
*690 net45
*691 net46
*692 net47
*693 net48
*694 net49
*695 net5
*696 net50
*697 net51
*698 net52
*699 net53
*700 net54
*701 net55
*702 net56
*703 net57
*704 net58
*705 net59
*706 net6
*707 net60
*708 net61
*709 net62
*710 net63
*711 net64
*712 net65
*713 net66
*714 net67
*715 net68
*716 net69
*717 net7
*718 net70
*719 net71
*720 net72
*721 net73
*722 net74
*723 net75
*724 net76
*725 net77
*726 net78
*727 net79
*728 net8
*729 net80
*730 net81
*731 net82
*732 net83
*733 net84
*734 net85
*735 net86
*736 net87
*737 net88
*738 net89
*739 net9
*740 net90
*741 net91
*742 net92
*743 net93
*744 net94
*745 net95
*746 net96
*747 net97
*748 net98
*749 net99
*750 state\[0\]
*751 state\[10\]
*752 state\[11\]
*753 state\[12\]
*754 state\[13\]
*755 state\[14\]
*756 state\[15\]
*757 state\[16\]
*758 state\[17\]
*759 state\[18\]
*760 state\[19\]
*761 state\[1\]
*762 state\[20\]
*763 state\[21\]
*764 state\[22\]
*765 state\[23\]
*766 state\[24\]
*767 state\[25\]
*768 state\[26\]
*769 state\[27\]
*770 state\[28\]
*771 state\[29\]
*772 state\[2\]
*773 state\[30\]
*774 state\[31\]
*775 state\[32\]
*776 state\[33\]
*777 state\[34\]
*778 state\[35\]
*779 state\[36\]
*780 state\[37\]
*781 state\[38\]
*782 state\[39\]
*783 state\[3\]
*784 state\[40\]
*785 state\[41\]
*786 state\[42\]
*787 state\[43\]
*788 state\[44\]
*789 state\[45\]
*790 state\[46\]
*791 state\[47\]
*792 state\[48\]
*793 state\[49\]
*794 state\[4\]
*795 state\[50\]
*796 state\[51\]
*797 state\[52\]
*798 state\[53\]
*799 state\[54\]
*800 state\[55\]
*801 state\[56\]
*802 state\[57\]
*803 state\[58\]
*804 state\[59\]
*805 state\[5\]
*806 state\[60\]
*807 state\[61\]
*808 state\[62\]
*809 state\[63\]
*810 state\[6\]
*811 state\[7\]
*812 state\[8\]
*813 state\[9\]
*814 vdda\[0\]
*815 vdda\[1\]
*816 vdda\[2\]
*817 vdda\[3\]
*818 ANTENNA_1
*819 ANTENNA_2
*820 FILLER_0_0
*821 FILLER_0_105
*822 FILLER_0_112
*823 FILLER_0_119
*824 FILLER_0_126
*825 FILLER_0_133
*826 FILLER_0_14
*827 FILLER_0_140
*828 FILLER_0_147
*829 FILLER_0_154
*830 FILLER_0_161
*831 FILLER_0_168
*832 FILLER_0_175
*833 FILLER_0_182
*834 FILLER_0_189
*835 FILLER_0_196
*836 FILLER_0_203
*837 FILLER_0_21
*838 FILLER_0_210
*839 FILLER_0_217
*840 FILLER_0_224
*841 FILLER_0_231
*842 FILLER_0_238
*843 FILLER_0_245
*844 FILLER_0_252
*845 FILLER_0_259
*846 FILLER_0_266
*847 FILLER_0_273
*848 FILLER_0_28
*849 FILLER_0_280
*850 FILLER_0_287
*851 FILLER_0_294
*852 FILLER_0_301
*853 FILLER_0_308
*854 FILLER_0_315
*855 FILLER_0_322
*856 FILLER_0_329
*857 FILLER_0_336
*858 FILLER_0_343
*859 FILLER_0_35
*860 FILLER_0_350
*861 FILLER_0_357
*862 FILLER_0_364
*863 FILLER_0_371
*864 FILLER_0_378
*865 FILLER_0_385
*866 FILLER_0_392
*867 FILLER_0_399
*868 FILLER_0_406
*869 FILLER_0_413
*870 FILLER_0_42
*871 FILLER_0_420
*872 FILLER_0_427
*873 FILLER_0_434
*874 FILLER_0_441
*875 FILLER_0_448
*876 FILLER_0_455
*877 FILLER_0_462
*878 FILLER_0_469
*879 FILLER_0_476
*880 FILLER_0_483
*881 FILLER_0_49
*882 FILLER_0_490
*883 FILLER_0_497
*884 FILLER_0_504
*885 FILLER_0_511
*886 FILLER_0_518
*887 FILLER_0_525
*888 FILLER_0_532
*889 FILLER_0_539
*890 FILLER_0_546
*891 FILLER_0_553
*892 FILLER_0_56
*893 FILLER_0_560
*894 FILLER_0_567
*895 FILLER_0_574
*896 FILLER_0_581
*897 FILLER_0_588
*898 FILLER_0_592
*899 FILLER_0_599
*900 FILLER_0_606
*901 FILLER_0_611
*902 FILLER_0_615
*903 FILLER_0_623
*904 FILLER_0_63
*905 FILLER_0_630
*906 FILLER_0_635
*907 FILLER_0_637
*908 FILLER_0_665
*909 FILLER_0_672
*910 FILLER_0_679
*911 FILLER_0_686
*912 FILLER_0_699
*913 FILLER_0_7
*914 FILLER_0_70
*915 FILLER_0_706
*916 FILLER_0_708
*917 FILLER_0_712
*918 FILLER_0_716
*919 FILLER_0_728
*920 FILLER_0_735
*921 FILLER_0_740
*922 FILLER_0_742
*923 FILLER_0_748
*924 FILLER_0_755
*925 FILLER_0_762
*926 FILLER_0_766
*927 FILLER_0_77
*928 FILLER_0_770
*929 FILLER_0_777
*930 FILLER_0_784
*931 FILLER_0_801
*932 FILLER_0_808
*933 FILLER_0_815
*934 FILLER_0_822
*935 FILLER_0_84
*936 FILLER_0_91
*937 FILLER_0_98
*938 FILLER_10_104
*939 FILLER_10_111
*940 FILLER_10_118
*941 FILLER_10_125
*942 FILLER_10_13
*943 FILLER_10_132
*944 FILLER_10_139
*945 FILLER_10_146
*946 FILLER_10_153
*947 FILLER_10_160
*948 FILLER_10_167
*949 FILLER_10_174
*950 FILLER_10_181
*951 FILLER_10_188
*952 FILLER_10_195
*953 FILLER_10_20
*954 FILLER_10_202
*955 FILLER_10_209
*956 FILLER_10_216
*957 FILLER_10_223
*958 FILLER_10_230
*959 FILLER_10_237
*960 FILLER_10_244
*961 FILLER_10_251
*962 FILLER_10_258
*963 FILLER_10_265
*964 FILLER_10_27
*965 FILLER_10_272
*966 FILLER_10_279
*967 FILLER_10_286
*968 FILLER_10_293
*969 FILLER_10_300
*970 FILLER_10_307
*971 FILLER_10_314
*972 FILLER_10_321
*973 FILLER_10_328
*974 FILLER_10_335
*975 FILLER_10_34
*976 FILLER_10_342
*977 FILLER_10_349
*978 FILLER_10_356
*979 FILLER_10_363
*980 FILLER_10_370
*981 FILLER_10_377
*982 FILLER_10_384
*983 FILLER_10_391
*984 FILLER_10_398
*985 FILLER_10_4
*986 FILLER_10_405
*987 FILLER_10_41
*988 FILLER_10_412
*989 FILLER_10_419
*990 FILLER_10_426
*991 FILLER_10_433
*992 FILLER_10_440
*993 FILLER_10_447
*994 FILLER_10_454
*995 FILLER_10_461
*996 FILLER_10_468
*997 FILLER_10_475
*998 FILLER_10_48
*999 FILLER_10_482
*1000 FILLER_10_489
*1001 FILLER_10_496
*1002 FILLER_10_503
*1003 FILLER_10_510
*1004 FILLER_10_512
*1005 FILLER_10_538
*1006 FILLER_10_545
*1007 FILLER_10_55
*1008 FILLER_10_552
*1009 FILLER_10_559
*1010 FILLER_10_566
*1011 FILLER_10_570
*1012 FILLER_10_581
*1013 FILLER_10_588
*1014 FILLER_10_62
*1015 FILLER_10_663
*1016 FILLER_10_69
*1017 FILLER_10_696
*1018 FILLER_10_76
*1019 FILLER_10_8
*1020 FILLER_10_83
*1021 FILLER_10_90
*1022 FILLER_10_97
*1023 FILLER_11_102
*1024 FILLER_11_109
*1025 FILLER_11_11
*1026 FILLER_11_116
*1027 FILLER_11_123
*1028 FILLER_11_130
*1029 FILLER_11_137
*1030 FILLER_11_144
*1031 FILLER_11_151
*1032 FILLER_11_158
*1033 FILLER_11_165
*1034 FILLER_11_172
*1035 FILLER_11_179
*1036 FILLER_11_18
*1037 FILLER_11_186
*1038 FILLER_11_193
*1039 FILLER_11_200
*1040 FILLER_11_207
*1041 FILLER_11_214
*1042 FILLER_11_221
*1043 FILLER_11_228
*1044 FILLER_11_235
*1045 FILLER_11_242
*1046 FILLER_11_249
*1047 FILLER_11_25
*1048 FILLER_11_256
*1049 FILLER_11_263
*1050 FILLER_11_270
*1051 FILLER_11_277
*1052 FILLER_11_284
*1053 FILLER_11_291
*1054 FILLER_11_298
*1055 FILLER_11_305
*1056 FILLER_11_312
*1057 FILLER_11_319
*1058 FILLER_11_32
*1059 FILLER_11_326
*1060 FILLER_11_333
*1061 FILLER_11_340
*1062 FILLER_11_347
*1063 FILLER_11_354
*1064 FILLER_11_361
*1065 FILLER_11_368
*1066 FILLER_11_375
*1067 FILLER_11_382
*1068 FILLER_11_389
*1069 FILLER_11_39
*1070 FILLER_11_396
*1071 FILLER_11_4
*1072 FILLER_11_403
*1073 FILLER_11_410
*1074 FILLER_11_417
*1075 FILLER_11_424
*1076 FILLER_11_426
*1077 FILLER_11_440
*1078 FILLER_11_447
*1079 FILLER_11_454
*1080 FILLER_11_46
*1081 FILLER_11_461
*1082 FILLER_11_465
*1083 FILLER_11_479
*1084 FILLER_11_486
*1085 FILLER_11_493
*1086 FILLER_11_500
*1087 FILLER_11_507
*1088 FILLER_11_514
*1089 FILLER_11_521
*1090 FILLER_11_528
*1091 FILLER_11_53
*1092 FILLER_11_535
*1093 FILLER_11_542
*1094 FILLER_11_549
*1095 FILLER_11_556
*1096 FILLER_11_563
*1097 FILLER_11_570
*1098 FILLER_11_577
*1099 FILLER_11_584
*1100 FILLER_11_591
*1101 FILLER_11_595
*1102 FILLER_11_60
*1103 FILLER_11_633
*1104 FILLER_11_650
*1105 FILLER_11_67
*1106 FILLER_11_685
*1107 FILLER_11_730
*1108 FILLER_11_734
*1109 FILLER_11_74
*1110 FILLER_11_81
*1111 FILLER_11_88
*1112 FILLER_11_95
*1113 FILLER_12_104
*1114 FILLER_12_111
*1115 FILLER_12_118
*1116 FILLER_12_125
*1117 FILLER_12_13
*1118 FILLER_12_132
*1119 FILLER_12_139
*1120 FILLER_12_146
*1121 FILLER_12_153
*1122 FILLER_12_160
*1123 FILLER_12_167
*1124 FILLER_12_174
*1125 FILLER_12_181
*1126 FILLER_12_188
*1127 FILLER_12_195
*1128 FILLER_12_20
*1129 FILLER_12_202
*1130 FILLER_12_209
*1131 FILLER_12_216
*1132 FILLER_12_223
*1133 FILLER_12_230
*1134 FILLER_12_237
*1135 FILLER_12_244
*1136 FILLER_12_251
*1137 FILLER_12_258
*1138 FILLER_12_265
*1139 FILLER_12_27
*1140 FILLER_12_272
*1141 FILLER_12_279
*1142 FILLER_12_286
*1143 FILLER_12_293
*1144 FILLER_12_300
*1145 FILLER_12_307
*1146 FILLER_12_314
*1147 FILLER_12_321
*1148 FILLER_12_328
*1149 FILLER_12_335
*1150 FILLER_12_34
*1151 FILLER_12_342
*1152 FILLER_12_349
*1153 FILLER_12_356
*1154 FILLER_12_363
*1155 FILLER_12_370
*1156 FILLER_12_377
*1157 FILLER_12_403
*1158 FILLER_12_41
*1159 FILLER_12_410
*1160 FILLER_12_417
*1161 FILLER_12_424
*1162 FILLER_12_431
*1163 FILLER_12_438
*1164 FILLER_12_445
*1165 FILLER_12_452
*1166 FILLER_12_459
*1167 FILLER_12_466
*1168 FILLER_12_473
*1169 FILLER_12_48
*1170 FILLER_12_480
*1171 FILLER_12_487
*1172 FILLER_12_494
*1173 FILLER_12_501
*1174 FILLER_12_508
*1175 FILLER_12_515
*1176 FILLER_12_522
*1177 FILLER_12_529
*1178 FILLER_12_536
*1179 FILLER_12_543
*1180 FILLER_12_55
*1181 FILLER_12_550
*1182 FILLER_12_557
*1183 FILLER_12_564
*1184 FILLER_12_571
*1185 FILLER_12_578
*1186 FILLER_12_585
*1187 FILLER_12_62
*1188 FILLER_12_631
*1189 FILLER_12_682
*1190 FILLER_12_689
*1191 FILLER_12_69
*1192 FILLER_12_696
*1193 FILLER_12_710
*1194 FILLER_12_76
*1195 FILLER_12_8
*1196 FILLER_12_83
*1197 FILLER_12_90
*1198 FILLER_12_97
*1199 FILLER_13_0
*1200 FILLER_13_101
*1201 FILLER_13_108
*1202 FILLER_13_115
*1203 FILLER_13_122
*1204 FILLER_13_129
*1205 FILLER_13_136
*1206 FILLER_13_143
*1207 FILLER_13_150
*1208 FILLER_13_157
*1209 FILLER_13_164
*1210 FILLER_13_17
*1211 FILLER_13_171
*1212 FILLER_13_178
*1213 FILLER_13_185
*1214 FILLER_13_192
*1215 FILLER_13_199
*1216 FILLER_13_2
*1217 FILLER_13_206
*1218 FILLER_13_213
*1219 FILLER_13_220
*1220 FILLER_13_227
*1221 FILLER_13_234
*1222 FILLER_13_24
*1223 FILLER_13_241
*1224 FILLER_13_248
*1225 FILLER_13_255
*1226 FILLER_13_262
*1227 FILLER_13_269
*1228 FILLER_13_276
*1229 FILLER_13_283
*1230 FILLER_13_290
*1231 FILLER_13_297
*1232 FILLER_13_304
*1233 FILLER_13_31
*1234 FILLER_13_311
*1235 FILLER_13_318
*1236 FILLER_13_325
*1237 FILLER_13_332
*1238 FILLER_13_339
*1239 FILLER_13_346
*1240 FILLER_13_353
*1241 FILLER_13_360
*1242 FILLER_13_367
*1243 FILLER_13_374
*1244 FILLER_13_38
*1245 FILLER_13_406
*1246 FILLER_13_413
*1247 FILLER_13_420
*1248 FILLER_13_427
*1249 FILLER_13_434
*1250 FILLER_13_441
*1251 FILLER_13_448
*1252 FILLER_13_45
*1253 FILLER_13_455
*1254 FILLER_13_462
*1255 FILLER_13_469
*1256 FILLER_13_476
*1257 FILLER_13_483
*1258 FILLER_13_490
*1259 FILLER_13_497
*1260 FILLER_13_504
*1261 FILLER_13_511
*1262 FILLER_13_518
*1263 FILLER_13_52
*1264 FILLER_13_525
*1265 FILLER_13_532
*1266 FILLER_13_539
*1267 FILLER_13_546
*1268 FILLER_13_553
*1269 FILLER_13_560
*1270 FILLER_13_567
*1271 FILLER_13_574
*1272 FILLER_13_581
*1273 FILLER_13_588
*1274 FILLER_13_59
*1275 FILLER_13_595
*1276 FILLER_13_602
*1277 FILLER_13_606
*1278 FILLER_13_624
*1279 FILLER_13_66
*1280 FILLER_13_662
*1281 FILLER_13_668
*1282 FILLER_13_670
*1283 FILLER_13_674
*1284 FILLER_13_681
*1285 FILLER_13_685
*1286 FILLER_13_73
*1287 FILLER_13_735
*1288 FILLER_13_774
*1289 FILLER_13_781
*1290 FILLER_13_80
*1291 FILLER_13_807
*1292 FILLER_13_811
*1293 FILLER_13_818
*1294 FILLER_13_87
*1295 FILLER_13_94
*1296 FILLER_14_104
*1297 FILLER_14_111
*1298 FILLER_14_118
*1299 FILLER_14_125
*1300 FILLER_14_132
*1301 FILLER_14_139
*1302 FILLER_14_146
*1303 FILLER_14_153
*1304 FILLER_14_160
*1305 FILLER_14_167
*1306 FILLER_14_174
*1307 FILLER_14_181
*1308 FILLER_14_188
*1309 FILLER_14_195
*1310 FILLER_14_202
*1311 FILLER_14_209
*1312 FILLER_14_216
*1313 FILLER_14_223
*1314 FILLER_14_230
*1315 FILLER_14_237
*1316 FILLER_14_244
*1317 FILLER_14_251
*1318 FILLER_14_258
*1319 FILLER_14_265
*1320 FILLER_14_272
*1321 FILLER_14_279
*1322 FILLER_14_286
*1323 FILLER_14_293
*1324 FILLER_14_300
*1325 FILLER_14_307
*1326 FILLER_14_314
*1327 FILLER_14_321
*1328 FILLER_14_328
*1329 FILLER_14_335
*1330 FILLER_14_34
*1331 FILLER_14_342
*1332 FILLER_14_349
*1333 FILLER_14_356
*1334 FILLER_14_363
*1335 FILLER_14_370
*1336 FILLER_14_377
*1337 FILLER_14_384
*1338 FILLER_14_391
*1339 FILLER_14_398
*1340 FILLER_14_4
*1341 FILLER_14_405
*1342 FILLER_14_41
*1343 FILLER_14_412
*1344 FILLER_14_419
*1345 FILLER_14_426
*1346 FILLER_14_433
*1347 FILLER_14_440
*1348 FILLER_14_447
*1349 FILLER_14_454
*1350 FILLER_14_461
*1351 FILLER_14_468
*1352 FILLER_14_475
*1353 FILLER_14_48
*1354 FILLER_14_482
*1355 FILLER_14_489
*1356 FILLER_14_496
*1357 FILLER_14_503
*1358 FILLER_14_510
*1359 FILLER_14_517
*1360 FILLER_14_524
*1361 FILLER_14_531
*1362 FILLER_14_538
*1363 FILLER_14_545
*1364 FILLER_14_55
*1365 FILLER_14_552
*1366 FILLER_14_559
*1367 FILLER_14_566
*1368 FILLER_14_573
*1369 FILLER_14_580
*1370 FILLER_14_587
*1371 FILLER_14_594
*1372 FILLER_14_6
*1373 FILLER_14_601
*1374 FILLER_14_608
*1375 FILLER_14_612
*1376 FILLER_14_62
*1377 FILLER_14_627
*1378 FILLER_14_634
*1379 FILLER_14_636
*1380 FILLER_14_640
*1381 FILLER_14_647
*1382 FILLER_14_654
*1383 FILLER_14_69
*1384 FILLER_14_732
*1385 FILLER_14_76
*1386 FILLER_14_793
*1387 FILLER_14_821
*1388 FILLER_14_83
*1389 FILLER_14_90
*1390 FILLER_14_97
*1391 FILLER_15_104
*1392 FILLER_15_111
*1393 FILLER_15_118
*1394 FILLER_15_125
*1395 FILLER_15_13
*1396 FILLER_15_132
*1397 FILLER_15_139
*1398 FILLER_15_146
*1399 FILLER_15_153
*1400 FILLER_15_160
*1401 FILLER_15_167
*1402 FILLER_15_174
*1403 FILLER_15_181
*1404 FILLER_15_188
*1405 FILLER_15_195
*1406 FILLER_15_202
*1407 FILLER_15_209
*1408 FILLER_15_216
*1409 FILLER_15_223
*1410 FILLER_15_230
*1411 FILLER_15_237
*1412 FILLER_15_244
*1413 FILLER_15_251
*1414 FILLER_15_258
*1415 FILLER_15_265
*1416 FILLER_15_27
*1417 FILLER_15_272
*1418 FILLER_15_279
*1419 FILLER_15_286
*1420 FILLER_15_293
*1421 FILLER_15_300
*1422 FILLER_15_307
*1423 FILLER_15_314
*1424 FILLER_15_321
*1425 FILLER_15_328
*1426 FILLER_15_335
*1427 FILLER_15_34
*1428 FILLER_15_342
*1429 FILLER_15_349
*1430 FILLER_15_356
*1431 FILLER_15_363
*1432 FILLER_15_370
*1433 FILLER_15_377
*1434 FILLER_15_384
*1435 FILLER_15_391
*1436 FILLER_15_398
*1437 FILLER_15_4
*1438 FILLER_15_405
*1439 FILLER_15_41
*1440 FILLER_15_412
*1441 FILLER_15_419
*1442 FILLER_15_426
*1443 FILLER_15_433
*1444 FILLER_15_440
*1445 FILLER_15_447
*1446 FILLER_15_454
*1447 FILLER_15_461
*1448 FILLER_15_468
*1449 FILLER_15_475
*1450 FILLER_15_48
*1451 FILLER_15_482
*1452 FILLER_15_489
*1453 FILLER_15_496
*1454 FILLER_15_503
*1455 FILLER_15_510
*1456 FILLER_15_517
*1457 FILLER_15_524
*1458 FILLER_15_531
*1459 FILLER_15_538
*1460 FILLER_15_545
*1461 FILLER_15_55
*1462 FILLER_15_552
*1463 FILLER_15_559
*1464 FILLER_15_566
*1465 FILLER_15_573
*1466 FILLER_15_580
*1467 FILLER_15_587
*1468 FILLER_15_594
*1469 FILLER_15_601
*1470 FILLER_15_608
*1471 FILLER_15_615
*1472 FILLER_15_62
*1473 FILLER_15_644
*1474 FILLER_15_654
*1475 FILLER_15_663
*1476 FILLER_15_670
*1477 FILLER_15_677
*1478 FILLER_15_69
*1479 FILLER_15_744
*1480 FILLER_15_755
*1481 FILLER_15_757
*1482 FILLER_15_76
*1483 FILLER_15_761
*1484 FILLER_15_768
*1485 FILLER_15_775
*1486 FILLER_15_782
*1487 FILLER_15_784
*1488 FILLER_15_791
*1489 FILLER_15_798
*1490 FILLER_15_8
*1491 FILLER_15_804
*1492 FILLER_15_806
*1493 FILLER_15_810
*1494 FILLER_15_817
*1495 FILLER_15_821
*1496 FILLER_15_83
*1497 FILLER_15_90
*1498 FILLER_15_97
*1499 FILLER_16_106
*1500 FILLER_16_113
*1501 FILLER_16_120
*1502 FILLER_16_127
*1503 FILLER_16_134
*1504 FILLER_16_141
*1505 FILLER_16_148
*1506 FILLER_16_155
*1507 FILLER_16_162
*1508 FILLER_16_169
*1509 FILLER_16_176
*1510 FILLER_16_183
*1511 FILLER_16_190
*1512 FILLER_16_197
*1513 FILLER_16_204
*1514 FILLER_16_211
*1515 FILLER_16_218
*1516 FILLER_16_225
*1517 FILLER_16_232
*1518 FILLER_16_239
*1519 FILLER_16_246
*1520 FILLER_16_253
*1521 FILLER_16_260
*1522 FILLER_16_267
*1523 FILLER_16_274
*1524 FILLER_16_281
*1525 FILLER_16_288
*1526 FILLER_16_29
*1527 FILLER_16_295
*1528 FILLER_16_302
*1529 FILLER_16_309
*1530 FILLER_16_316
*1531 FILLER_16_323
*1532 FILLER_16_330
*1533 FILLER_16_337
*1534 FILLER_16_344
*1535 FILLER_16_351
*1536 FILLER_16_358
*1537 FILLER_16_36
*1538 FILLER_16_365
*1539 FILLER_16_372
*1540 FILLER_16_379
*1541 FILLER_16_386
*1542 FILLER_16_393
*1543 FILLER_16_4
*1544 FILLER_16_400
*1545 FILLER_16_407
*1546 FILLER_16_414
*1547 FILLER_16_421
*1548 FILLER_16_428
*1549 FILLER_16_43
*1550 FILLER_16_435
*1551 FILLER_16_442
*1552 FILLER_16_449
*1553 FILLER_16_456
*1554 FILLER_16_463
*1555 FILLER_16_470
*1556 FILLER_16_477
*1557 FILLER_16_484
*1558 FILLER_16_491
*1559 FILLER_16_498
*1560 FILLER_16_50
*1561 FILLER_16_505
*1562 FILLER_16_512
*1563 FILLER_16_519
*1564 FILLER_16_526
*1565 FILLER_16_533
*1566 FILLER_16_540
*1567 FILLER_16_547
*1568 FILLER_16_554
*1569 FILLER_16_561
*1570 FILLER_16_568
*1571 FILLER_16_57
*1572 FILLER_16_575
*1573 FILLER_16_582
*1574 FILLER_16_589
*1575 FILLER_16_596
*1576 FILLER_16_603
*1577 FILLER_16_610
*1578 FILLER_16_617
*1579 FILLER_16_621
*1580 FILLER_16_627
*1581 FILLER_16_634
*1582 FILLER_16_64
*1583 FILLER_16_641
*1584 FILLER_16_675
*1585 FILLER_16_677
*1586 FILLER_16_685
*1587 FILLER_16_691
*1588 FILLER_16_698
*1589 FILLER_16_705
*1590 FILLER_16_71
*1591 FILLER_16_715
*1592 FILLER_16_746
*1593 FILLER_16_775
*1594 FILLER_16_78
*1595 FILLER_16_821
*1596 FILLER_16_85
*1597 FILLER_16_92
*1598 FILLER_16_99
*1599 FILLER_17_105
*1600 FILLER_17_112
*1601 FILLER_17_119
*1602 FILLER_17_126
*1603 FILLER_17_13
*1604 FILLER_17_133
*1605 FILLER_17_140
*1606 FILLER_17_147
*1607 FILLER_17_154
*1608 FILLER_17_161
*1609 FILLER_17_168
*1610 FILLER_17_17
*1611 FILLER_17_175
*1612 FILLER_17_182
*1613 FILLER_17_189
*1614 FILLER_17_196
*1615 FILLER_17_203
*1616 FILLER_17_210
*1617 FILLER_17_217
*1618 FILLER_17_224
*1619 FILLER_17_231
*1620 FILLER_17_238
*1621 FILLER_17_245
*1622 FILLER_17_252
*1623 FILLER_17_259
*1624 FILLER_17_266
*1625 FILLER_17_273
*1626 FILLER_17_28
*1627 FILLER_17_280
*1628 FILLER_17_287
*1629 FILLER_17_294
*1630 FILLER_17_301
*1631 FILLER_17_308
*1632 FILLER_17_315
*1633 FILLER_17_322
*1634 FILLER_17_329
*1635 FILLER_17_336
*1636 FILLER_17_343
*1637 FILLER_17_350
*1638 FILLER_17_357
*1639 FILLER_17_364
*1640 FILLER_17_371
*1641 FILLER_17_378
*1642 FILLER_17_385
*1643 FILLER_17_392
*1644 FILLER_17_399
*1645 FILLER_17_4
*1646 FILLER_17_406
*1647 FILLER_17_413
*1648 FILLER_17_420
*1649 FILLER_17_427
*1650 FILLER_17_434
*1651 FILLER_17_441
*1652 FILLER_17_448
*1653 FILLER_17_455
*1654 FILLER_17_462
*1655 FILLER_17_469
*1656 FILLER_17_476
*1657 FILLER_17_483
*1658 FILLER_17_490
*1659 FILLER_17_497
*1660 FILLER_17_504
*1661 FILLER_17_511
*1662 FILLER_17_518
*1663 FILLER_17_525
*1664 FILLER_17_532
*1665 FILLER_17_539
*1666 FILLER_17_546
*1667 FILLER_17_553
*1668 FILLER_17_56
*1669 FILLER_17_560
*1670 FILLER_17_567
*1671 FILLER_17_574
*1672 FILLER_17_581
*1673 FILLER_17_588
*1674 FILLER_17_595
*1675 FILLER_17_602
*1676 FILLER_17_609
*1677 FILLER_17_616
*1678 FILLER_17_623
*1679 FILLER_17_63
*1680 FILLER_17_630
*1681 FILLER_17_637
*1682 FILLER_17_644
*1683 FILLER_17_651
*1684 FILLER_17_658
*1685 FILLER_17_665
*1686 FILLER_17_669
*1687 FILLER_17_676
*1688 FILLER_17_691
*1689 FILLER_17_695
*1690 FILLER_17_70
*1691 FILLER_17_728
*1692 FILLER_17_730
*1693 FILLER_17_761
*1694 FILLER_17_765
*1695 FILLER_17_77
*1696 FILLER_17_797
*1697 FILLER_17_804
*1698 FILLER_17_811
*1699 FILLER_17_818
*1700 FILLER_17_822
*1701 FILLER_17_84
*1702 FILLER_17_91
*1703 FILLER_17_98
*1704 FILLER_18_106
*1705 FILLER_18_113
*1706 FILLER_18_120
*1707 FILLER_18_127
*1708 FILLER_18_134
*1709 FILLER_18_141
*1710 FILLER_18_148
*1711 FILLER_18_155
*1712 FILLER_18_162
*1713 FILLER_18_169
*1714 FILLER_18_176
*1715 FILLER_18_183
*1716 FILLER_18_190
*1717 FILLER_18_197
*1718 FILLER_18_204
*1719 FILLER_18_211
*1720 FILLER_18_218
*1721 FILLER_18_225
*1722 FILLER_18_232
*1723 FILLER_18_239
*1724 FILLER_18_246
*1725 FILLER_18_253
*1726 FILLER_18_260
*1727 FILLER_18_267
*1728 FILLER_18_274
*1729 FILLER_18_281
*1730 FILLER_18_288
*1731 FILLER_18_295
*1732 FILLER_18_302
*1733 FILLER_18_309
*1734 FILLER_18_316
*1735 FILLER_18_323
*1736 FILLER_18_330
*1737 FILLER_18_337
*1738 FILLER_18_344
*1739 FILLER_18_351
*1740 FILLER_18_358
*1741 FILLER_18_36
*1742 FILLER_18_365
*1743 FILLER_18_372
*1744 FILLER_18_379
*1745 FILLER_18_386
*1746 FILLER_18_393
*1747 FILLER_18_400
*1748 FILLER_18_407
*1749 FILLER_18_414